*SPEF "ieee 1481-1999"
*DESIGN "counter"
*DATE "14:19:07 Sunday December 14, 2025"
*VENDOR "The OpenROAD Project"
*PROGRAM "OpenROAD"
*VERSION "edf00dff99f6c40d67a30c0e22a8191c5d2ed9d6"
*DESIGN_FLOW "NAME_SCOPE LOCAL" "PIN_CAP NONE"
*DIVIDER /
*DELIMITER :
*BUS_DELIMITER []
*T_UNIT 1 NS
*C_UNIT 1 PF
*R_UNIT 1 OHM
*L_UNIT 1 HENRY

*NAME_MAP
*3 clk
*4 q[0]
*5 q[1]
*6 q[2]
*7 q[3]
*8 q[4]
*9 q[5]
*10 q[6]
*11 q[7]
*12 rst
*13 _00_
*14 _01_
*15 _02_
*16 _03_
*17 _04_
*18 _05_
*19 _06_
*20 _07_
*21 _08_
*22 _09_
*23 _10_
*24 _11_
*25 _12_
*26 _13_
*27 _14_
*28 _15_
*29 _16_
*30 _17_
*31 _18_
*32 _19_
*33 _20_
*34 _21_
*35 _22_
*36 clknet_0_clk
*37 clknet_1_0__leaf_clk
*38 clknet_1_1__leaf_clk
*39 net1
*40 net10
*41 net11
*42 net12
*43 net13
*44 net14
*45 net15
*46 net16
*47 net17
*48 net18
*49 net2
*50 net3
*51 net4
*52 net5
*53 net6
*54 net7
*55 net8
*56 net9
*57 FILLER_0_15
*58 FILLER_0_23
*59 FILLER_0_3
*60 FILLER_1_18
*61 FILLER_1_3
*62 FILLER_1_55
*63 FILLER_2_29
*64 FILLER_2_3
*65 FILLER_3_3
*66 FILLER_3_54
*67 FILLER_4_48
*68 FILLER_4_7
*69 FILLER_5_12
*70 FILLER_5_3
*71 FILLER_5_41
*72 FILLER_6_27
*73 FILLER_6_29
*74 FILLER_6_55
*75 FILLER_7_35
*76 FILLER_8_11
*77 FILLER_8_25
*78 FILLER_8_3
*79 FILLER_8_32
*80 FILLER_8_43
*81 FILLER_8_56
*82 FILLER_9_15
*83 FILLER_9_27
*84 FILLER_9_3
*85 FILLER_9_53
*86 PHY_EDGE_ROW_0_Left_10
*87 PHY_EDGE_ROW_0_Right_0
*88 PHY_EDGE_ROW_1_Left_11
*89 PHY_EDGE_ROW_1_Right_1
*90 PHY_EDGE_ROW_2_Left_12
*91 PHY_EDGE_ROW_2_Right_2
*92 PHY_EDGE_ROW_3_Left_13
*93 PHY_EDGE_ROW_3_Right_3
*94 PHY_EDGE_ROW_4_Left_14
*95 PHY_EDGE_ROW_4_Right_4
*96 PHY_EDGE_ROW_5_Left_15
*97 PHY_EDGE_ROW_5_Right_5
*98 PHY_EDGE_ROW_6_Left_16
*99 PHY_EDGE_ROW_6_Right_6
*100 PHY_EDGE_ROW_7_Left_17
*101 PHY_EDGE_ROW_7_Right_7
*102 PHY_EDGE_ROW_8_Left_18
*103 PHY_EDGE_ROW_8_Right_8
*104 PHY_EDGE_ROW_9_Left_19
*105 PHY_EDGE_ROW_9_Right_9
*106 TAP_TAPCELL_ROW_0_20
*107 TAP_TAPCELL_ROW_0_21
*108 TAP_TAPCELL_ROW_1_22
*109 TAP_TAPCELL_ROW_2_23
*110 TAP_TAPCELL_ROW_3_24
*111 TAP_TAPCELL_ROW_4_25
*112 TAP_TAPCELL_ROW_5_26
*113 TAP_TAPCELL_ROW_6_27
*114 TAP_TAPCELL_ROW_7_28
*115 TAP_TAPCELL_ROW_8_29
*116 TAP_TAPCELL_ROW_9_30
*117 TAP_TAPCELL_ROW_9_31
*118 _23_
*119 _24_
*120 _25_
*121 _26_
*122 _27_
*123 _28_
*124 _29_
*125 _30_
*126 _31_
*127 _32_
*128 _33_
*129 _34_
*130 _35_
*131 _36_
*132 _37_
*133 _38_
*134 _39_
*135 _40_
*136 _41_
*137 _42_
*138 _43_
*139 _44_
*140 _45_
*141 _46_
*142 _47_
*143 _48_
*144 _49_
*145 _50_
*146 _51_
*147 _52_
*148 _53_
*149 clkbuf_0_clk
*150 clkbuf_1_0__f_clk
*151 clkbuf_1_1__f_clk
*152 hold1
*153 hold2
*154 hold3
*155 hold4
*156 hold5
*157 hold6
*158 hold7
*159 hold8
*160 hold9
*161 input1
*162 output2
*163 output3
*164 output4
*165 output5
*166 output6
*167 output7
*168 output8
*169 output9

*PORTS
clk I
q[0] O
q[1] O
q[2] O
q[3] O
q[4] O
q[5] O
q[6] O
q[7] O
rst I

*D_NET *3 0.00197462
*CONN
*P clk I
*I *149:A I *D sky130_fd_sc_hd__clkbuf_16
*CAP
1 clk 0.000840952
2 *149:A 0.000840952
3 *149:A q[2] 0
4 *149:A q[3] 3.19385e-05
5 *149:A q[5] 9.54485e-05
6 *149:A *129:B1 0.000110238
7 *149:A *29:51 1.17968e-05
8 *149:A *33:24 4.32918e-05
*RES
1 clk *149:A 20.9379 
*END

*D_NET *4 0.0012607
*CONN
*P q[0] O
*I *162:X O *D sky130_fd_sc_hd__buf_2
*CAP
1 q[0] 0.000527801
2 *162:X 0.000527801
3 q[0] *118:A 2.89114e-05
4 q[0] *143:D 1.20377e-05
5 q[0] *150:A 0.00015234
6 q[0] *37:12 0
7 q[0] *39:16 1.18064e-05
*RES
1 *162:X q[0] 24.0679 
*END

*D_NET *5 0.00381086
*CONN
*P q[1] O
*I *163:X O *D sky130_fd_sc_hd__buf_2
*CAP
1 q[1] 0.00113376
2 *163:X 0.00113376
3 q[1] q[2] 0.000138674
4 q[1] *121:B 1.0562e-05
5 q[1] *158:A 0.000242657
6 q[1] *161:A 0.000141804
7 q[1] *163:A 0.000697211
8 q[1] *49:10 0.000220192
9 q[1] *49:38 5.71619e-05
10 q[1] *50:6 2.42516e-05
11 q[1] *50:38 1.08359e-05
*RES
1 *163:X q[1] 31.9487 
*END

*D_NET *6 0.00409327
*CONN
*P q[2] O
*I *164:X O *D sky130_fd_sc_hd__buf_2
*CAP
1 q[2] 0.00191193
2 *164:X 0.00191193
3 q[2] *123:A 1.03245e-05
4 q[2] *144:CLK 6.5185e-05
5 q[2] *145:RESET_B 5.52238e-05
6 q[2] *161:A 0
7 q[2] *39:48 0
8 q[1] q[2] 0.000138674
9 *149:A q[2] 0
*RES
1 *164:X q[2] 23.3627 
*END

*D_NET *7 0.000777031
*CONN
*P q[3] O
*I *165:X O *D sky130_fd_sc_hd__buf_2
*CAP
1 q[3] 0.000372546
2 *165:X 0.000372546
3 *149:A q[3] 3.19385e-05
*RES
1 *165:X q[3] 21.4981 
*END

*D_NET *8 0.00072306
*CONN
*P q[4] O
*I *166:X O *D sky130_fd_sc_hd__buf_2
*CAP
1 q[4] 0.000345561
2 *166:X 0.000345561
3 q[4] q[5] 3.19385e-05
*RES
1 *166:X q[4] 20.891 
*END

*D_NET *9 0.000493108
*CONN
*P q[5] O
*I *167:X O *D sky130_fd_sc_hd__buf_2
*CAP
1 q[5] 0.000182861
2 *167:X 0.000182861
3 q[4] q[5] 3.19385e-05
4 *149:A q[5] 9.54485e-05
*RES
1 *167:X q[5] 18.1949 
*END

*D_NET *10 0.001706
*CONN
*P q[6] O
*I *168:X O *D sky130_fd_sc_hd__buf_2
*CAP
1 q[6] 0.000521958
2 *168:X 0.000521958
3 q[6] q[7] 0.000104775
4 q[6] *147:RESET_B 3.71343e-05
5 q[6] *148:RESET_B 0.000160612
6 q[6] *161:A 0.000121474
7 q[6] *168:A 0.000192346
8 q[6] *56:10 4.57445e-05
*RES
1 *168:X q[6] 26.2325 
*END

*D_NET *11 0.00125437
*CONN
*P q[7] O
*I *169:X O *D sky130_fd_sc_hd__buf_2
*CAP
1 q[7] 0.000574798
2 *169:X 0.000574798
3 q[7] *161:A 0
4 q[7] *168:A 0
5 q[6] q[7] 0.000104775
*RES
1 *169:X q[7] 20.737 
*END

*D_NET *12 0.00126258
*CONN
*P rst I
*I *161:A I *D sky130_fd_sc_hd__clkbuf_4
*CAP
1 rst 0.000468342
2 *161:A 0.000468342
3 *161:A *131:B1 3.09981e-05
4 *161:A *147:RESET_B 0
5 *161:A *148:RESET_B 0
6 *161:A *29:14 3.16167e-05
7 q[1] *161:A 0.000141804
8 q[2] *161:A 0
9 q[6] *161:A 0.000121474
10 q[7] *161:A 0
*RES
1 rst *161:A 20.3614 
*END

*D_NET *13 0.000895575
*CONN
*I *141:D I *D sky130_fd_sc_hd__dfrtp_1
*I *118:Y O *D sky130_fd_sc_hd__inv_2
*CAP
1 *141:D 0.000204876
2 *118:Y 0.000204876
3 *141:D *123:A 0.00010096
4 *141:D *123:B 0
5 *141:D *141:RESET_B 0.000318332
6 *141:D *52:8 6.65302e-05
*RES
1 *118:Y *141:D 32.6179 
*END

*D_NET *14 0.00028492
*CONN
*I *142:D I *D sky130_fd_sc_hd__dfrtp_1
*I *120:X O *D sky130_fd_sc_hd__xor2_1
*CAP
1 *142:D 4.28346e-05
2 *120:X 4.28346e-05
3 *142:D *120:B 9.96256e-05
4 *142:D *163:A 9.96256e-05
*RES
1 *120:X *142:D 20.3679 
*END

*D_NET *15 0.000985613
*CONN
*I *143:D I *D sky130_fd_sc_hd__dfrtp_1
*I *123:Y O *D sky130_fd_sc_hd__nor2_1
*CAP
1 *143:D 0.000181738
2 *123:Y 0.000181738
3 *143:D *118:A 0.000117543
4 *143:D *143:RESET_B 0.000397734
5 *143:D *162:A 9.48222e-05
6 q[0] *143:D 1.20377e-05
*RES
1 *123:Y *143:D 23.6536 
*END

*D_NET *16 0.000387431
*CONN
*I *144:D I *D sky130_fd_sc_hd__dfrtp_1
*I *125:X O *D sky130_fd_sc_hd__xor2_1
*CAP
1 *144:D 0.000155873
2 *125:X 0.000155873
3 *144:D *144:CLK 7.56856e-05
4 *144:D *39:48 0
*RES
1 *125:X *144:D 29.908 
*END

*D_NET *17 0.00021169
*CONN
*I *145:D I *D sky130_fd_sc_hd__dfrtp_1
*I *127:Y O *D sky130_fd_sc_hd__xnor2_1
*CAP
1 *145:D 5.33579e-05
2 *127:Y 5.33579e-05
3 *145:D *127:B 0.000104974
4 *145:D *145:RESET_B 0
*RES
1 *127:Y *145:D 28.9393 
*END

*D_NET *18 0.000490801
*CONN
*I *146:D I *D sky130_fd_sc_hd__dfrtp_1
*I *129:X O *D sky130_fd_sc_hd__o2bb2a_1
*CAP
1 *146:D 0.000164071
2 *129:X 0.000164071
3 *146:D *124:B 5.62995e-05
4 *146:D *127:B 0.000102545
5 *146:D *145:RESET_B 0
6 *146:D *147:RESET_B 3.81416e-06
*RES
1 *129:X *146:D 30.2964 
*END

*D_NET *19 0.00145145
*CONN
*I *147:D I *D sky130_fd_sc_hd__dfrtp_1
*I *132:Y O *D sky130_fd_sc_hd__nor2_1
*CAP
1 *147:D 0.000354656
2 *132:Y 0.000354656
3 *147:D *130:A 5.71472e-05
4 *147:D *132:A 7.63425e-05
5 *147:D *168:A 0
6 *147:D *34:16 0.000278511
7 *147:D *38:10 9.91086e-05
8 *147:D *38:16 0.000231028
*RES
1 *132:Y *147:D 34.9929 
*END

*D_NET *20 0.000631419
*CONN
*I *148:D I *D sky130_fd_sc_hd__dfrtp_1
*I *133:X O *D sky130_fd_sc_hd__xor2_1
*CAP
1 *148:D 0.000209924
2 *133:X 0.000209924
3 *148:D *132:B 4.04221e-05
4 *148:D *148:CLK 0.000101754
5 *148:D *151:A 0
6 *148:D *38:10 6.93944e-05
*RES
1 *133:X *148:D 31.3321 
*END

*D_NET *21 0.00137756
*CONN
*I *141:RESET_B I *D sky130_fd_sc_hd__dfrtp_1
*I *119:Y O *D sky130_fd_sc_hd__inv_2
*CAP
1 *141:RESET_B 0.000170136
2 *119:Y 0.000170136
3 *141:RESET_B *123:A 0.000368119
4 *141:RESET_B *164:A 0.000264685
5 *141:RESET_B *37:42 6.83178e-05
6 *141:RESET_B *52:8 1.78353e-05
7 *141:D *141:RESET_B 0.000318332
*RES
1 *119:Y *141:RESET_B 25.5054 
*END

*D_NET *22 0.00251669
*CONN
*I *142:RESET_B I *D sky130_fd_sc_hd__dfrtp_1
*I *134:Y O *D sky130_fd_sc_hd__inv_2
*CAP
1 *142:RESET_B 0.000537922
2 *134:Y 0.000537922
3 *142:RESET_B *122:A1 0.000125724
4 *142:RESET_B *122:A2 5.33433e-05
5 *142:RESET_B *122:B1 0.00031639
6 *142:RESET_B *134:A 3.67142e-05
7 *142:RESET_B *140:A 0.000339423
8 *142:RESET_B *158:A 0.0001399
9 *142:RESET_B *37:12 0.000230854
10 *142:RESET_B *49:10 0.000198494
*RES
1 *134:Y *142:RESET_B 32.7643 
*END

*D_NET *23 0.00130409
*CONN
*I *143:RESET_B I *D sky130_fd_sc_hd__dfrtp_1
*I *135:Y O *D sky130_fd_sc_hd__inv_2
*CAP
1 *143:RESET_B 0.000397732
2 *135:Y 0.000397732
3 *143:RESET_B *162:A 0.000110888
4 *143:D *143:RESET_B 0.000397734
*RES
1 *135:Y *143:RESET_B 15.6661 
*END

*D_NET *24 0.000278645
*CONN
*I *144:RESET_B I *D sky130_fd_sc_hd__dfrtp_1
*I *136:Y O *D sky130_fd_sc_hd__inv_2
*CAP
1 *144:RESET_B 0.000119671
2 *136:Y 0.000119671
3 *144:RESET_B *123:A 0
4 *144:RESET_B *39:42 3.18676e-05
5 *144:RESET_B *39:48 7.43578e-06
*RES
1 *136:Y *144:RESET_B 20.175 
*END

*D_NET *25 0.00204758
*CONN
*I *145:RESET_B I *D sky130_fd_sc_hd__dfrtp_1
*I *137:Y O *D sky130_fd_sc_hd__inv_2
*CAP
1 *145:RESET_B 0.00070179
2 *137:Y 0.00070179
3 *145:RESET_B *123:A 0.000190955
4 *145:RESET_B *124:A 0
5 *145:RESET_B *125:A 0.000105704
6 *145:RESET_B *125:B 5.71472e-05
7 *145:RESET_B *127:B 0
8 *145:RESET_B *130:B 0
9 *145:RESET_B *139:A 0
10 *145:RESET_B *146:RESET_B 0
11 *145:RESET_B *147:RESET_B 0
12 *145:RESET_B *164:A 6.05161e-06
13 *145:RESET_B *29:51 0.00022892
14 *145:RESET_B *33:24 0
15 *145:RESET_B *39:48 0
16 q[2] *145:RESET_B 5.52238e-05
17 *145:D *145:RESET_B 0
18 *146:D *145:RESET_B 0
*RES
1 *137:Y *145:RESET_B 31.8893 
*END

*D_NET *26 0.00127225
*CONN
*I *146:RESET_B I *D sky130_fd_sc_hd__dfrtp_1
*I *138:Y O *D sky130_fd_sc_hd__inv_2
*CAP
1 *146:RESET_B 0.000427611
2 *138:Y 0.000427611
3 *146:RESET_B *130:B 0.000105696
4 *146:RESET_B *138:A 4.87953e-05
5 *146:RESET_B *155:A 0.000153409
6 *146:RESET_B *167:A 5.048e-05
7 *146:RESET_B *38:18 2.51837e-05
8 *146:RESET_B *53:19 3.34687e-05
9 *145:RESET_B *146:RESET_B 0
*RES
1 *138:Y *146:RESET_B 26.0411 
*END

*D_NET *27 0.00415807
*CONN
*I *147:RESET_B I *D sky130_fd_sc_hd__dfrtp_1
*I *139:Y O *D sky130_fd_sc_hd__inv_2
*CAP
1 *147:RESET_B 0.00127452
2 *139:Y 0.00127452
3 *147:RESET_B *124:A 7.5779e-05
4 *147:RESET_B *124:B 7.44788e-05
5 *147:RESET_B *129:B2 0.000347181
6 *147:RESET_B *148:RESET_B 0
7 *147:RESET_B *165:A 4.0342e-06
8 *147:RESET_B *168:A 5.83304e-05
9 *147:RESET_B *29:14 0.000669878
10 *147:RESET_B *29:35 5.78469e-05
11 *147:RESET_B *36:8 0.000266516
12 *147:RESET_B *52:18 1.40306e-05
13 q[6] *147:RESET_B 3.71343e-05
14 *145:RESET_B *147:RESET_B 0
15 *146:D *147:RESET_B 3.81416e-06
16 *161:A *147:RESET_B 0
*RES
1 *139:Y *147:RESET_B 48.8357 
*END

*D_NET *28 0.00233166
*CONN
*I *148:RESET_B I *D sky130_fd_sc_hd__dfrtp_1
*I *140:Y O *D sky130_fd_sc_hd__inv_2
*CAP
1 *148:RESET_B 0.0008553
2 *140:Y 0.0008553
3 *148:RESET_B *122:B1 0.000334898
4 *148:RESET_B *131:B1 0
5 *148:RESET_B *156:A 0.000125555
6 *148:RESET_B *49:38 0
7 q[6] *148:RESET_B 0.000160612
8 *147:RESET_B *148:RESET_B 0
9 *161:A *148:RESET_B 0
*RES
1 *140:Y *148:RESET_B 36.0054 
*END

*D_NET *29 0.00820779
*CONN
*I *130:B I *D sky130_fd_sc_hd__and3_1
*I *126:C I *D sky130_fd_sc_hd__and3_1
*I *125:B I *D sky130_fd_sc_hd__xor2_1
*I *123:A I *D sky130_fd_sc_hd__nor2_1
*I *129:A1_N I *D sky130_fd_sc_hd__o2bb2a_1
*I *124:B I *D sky130_fd_sc_hd__nand2_1
*I *131:A1 I *D sky130_fd_sc_hd__a21oi_1
*I *121:X O *D sky130_fd_sc_hd__and3_2
*CAP
1 *130:B 0.000344209
2 *126:C 0
3 *125:B 0.000178471
4 *123:A 0.000351276
5 *129:A1_N 0
6 *124:B 4.89428e-05
7 *131:A1 6.74021e-05
8 *121:X 0.000270936
9 *29:70 0.000298572
10 *29:51 0.000587509
11 *29:35 0.000101071
12 *29:33 0.00026611
13 *29:25 0.000456577
14 *29:14 0.000352857
15 *123:A *118:A 4.22908e-05
16 *123:A *144:CLK 0.000126439
17 *123:A *39:40 8.18698e-05
18 *123:A *39:42 1.33343e-05
19 *123:A *39:48 0
20 *123:A *52:8 0
21 *123:A *52:12 0
22 *124:B *129:A2_N 6.63909e-06
23 *125:B *125:A 0.000133375
24 *125:B *139:A 7.2305e-05
25 *125:B *39:48 1.76135e-05
26 *125:B *52:16 2.66566e-05
27 *130:B *33:24 2.24646e-05
28 *130:B *38:18 0.000152272
29 *130:B *53:19 0.000218734
30 *131:A1 *33:24 0.000197262
31 *131:A1 *39:10 2.91794e-05
32 *131:A1 *53:19 0.000121573
33 *29:14 *129:B2 9.41642e-05
34 *29:14 *130:C 3.2687e-05
35 *29:14 *39:8 0.000610194
36 *29:25 *33:24 4.80729e-05
37 *29:25 *53:19 5.66157e-05
38 *29:33 *129:A2_N 0.000208138
39 *29:33 *129:B2 8.74529e-05
40 *29:33 *130:C 4.08637e-05
41 *29:35 *129:A2_N 9.76491e-05
42 *29:35 *129:B2 6.05161e-06
43 *29:51 *129:B1 0.000120708
44 *29:51 *33:24 0
45 *29:70 *52:16 0.000255208
46 q[2] *123:A 1.03245e-05
47 *141:D *123:A 0.00010096
48 *141:RESET_B *123:A 0.000368119
49 *144:RESET_B *123:A 0
50 *145:RESET_B *123:A 0.000190955
51 *145:RESET_B *125:B 5.71472e-05
52 *145:RESET_B *130:B 0
53 *145:RESET_B *29:51 0.00022892
54 *146:D *124:B 5.62995e-05
55 *146:RESET_B *130:B 0.000105696
56 *147:RESET_B *124:B 7.44788e-05
57 *147:RESET_B *29:14 0.000669878
58 *147:RESET_B *29:35 5.78469e-05
59 *149:A *29:51 1.17968e-05
60 *161:A *29:14 3.16167e-05
*RES
1 *121:X *29:14 31.9607 
2 *29:14 *131:A1 16.3536 
3 *29:14 *29:25 0.732143 
4 *29:25 *29:33 7.64286 
5 *29:33 *29:35 1.78125 
6 *29:35 *124:B 11.0545 
7 *29:35 *129:A1_N 9.3 
8 *29:33 *29:51 7.66071 
9 *29:51 *123:A 23.4429 
10 *29:51 *29:70 6.94643 
11 *29:70 *125:B 22.5857 
12 *29:70 *126:C 9.3 
13 *29:25 *130:B 19.6571 
*END

*D_NET *30 0.001955
*CONN
*I *158:A I *D sky130_fd_sc_hd__dlygate4sd3_1
*I *122:Y O *D sky130_fd_sc_hd__a21oi_1
*CAP
1 *158:A 0.000360732
2 *122:Y 0.000360732
3 *158:A *122:A1 5.33882e-05
4 *158:A *122:A2 0.000336659
5 *158:A *140:A 1.32552e-05
6 *158:A *154:A 5.33005e-05
7 *158:A *164:A 3.69047e-06
8 *158:A *49:8 0.000137983
9 *158:A *49:10 7.8894e-05
10 *158:A *50:38 0.000173804
11 q[1] *158:A 0.000242657
12 *142:RESET_B *158:A 0.0001399
*RES
1 *122:Y *158:A 37.225 
*END

*D_NET *31 0.00114893
*CONN
*I *127:B I *D sky130_fd_sc_hd__xnor2_1
*I *124:Y O *D sky130_fd_sc_hd__nand2_1
*CAP
1 *127:B 0.000374966
2 *124:Y 0.000374966
3 *127:B *127:A 9.90367e-05
4 *127:B *145:CLK 9.24395e-05
5 *145:D *127:B 0.000104974
6 *145:RESET_B *127:B 0
7 *146:D *127:B 0.000102545
*RES
1 *124:Y *127:B 35.35 
*END

*D_NET *32 0.000895673
*CONN
*I *129:B1 I *D sky130_fd_sc_hd__o2bb2a_1
*I *126:X O *D sky130_fd_sc_hd__and3_1
*CAP
1 *129:B1 0.00021911
2 *126:X 0.00021911
3 *129:B1 *126:B 0.000226507
4 *149:A *129:B1 0.000110238
5 *29:51 *129:B1 0.000120708
*RES
1 *126:X *129:B1 31.4214 
*END

*D_NET *33 0.00338878
*CONN
*I *131:A2 I *D sky130_fd_sc_hd__a21oi_1
*I *130:C I *D sky130_fd_sc_hd__and3_1
*I *129:A2_N I *D sky130_fd_sc_hd__o2bb2a_1
*I *128:X O *D sky130_fd_sc_hd__and3_1
*CAP
1 *131:A2 0
2 *130:C 0.000339654
3 *129:A2_N 0.00027611
4 *128:X 0.000209936
5 *33:24 0.000753707
6 *33:18 0.000347878
7 *130:C *128:C 7.6644e-05
8 *130:C *130:A 1.95435e-05
9 *130:C *132:B 7.54868e-05
10 *130:C *159:A 9.25014e-06
11 *130:C *39:8 9.26203e-05
12 *33:18 *126:B 3.05446e-05
13 *33:18 *128:A 0.00013785
14 *33:18 *128:B 9.22103e-06
15 *33:18 *128:C 6.04072e-05
16 *33:18 *131:B1 0.000145266
17 *33:18 *41:10 9.83442e-05
18 *33:24 *52:12 9.25014e-06
19 *124:B *129:A2_N 6.63909e-06
20 *130:B *33:24 2.24646e-05
21 *131:A1 *33:24 0.000197262
22 *145:RESET_B *33:24 0
23 *149:A *33:24 4.32918e-05
24 *29:14 *130:C 3.2687e-05
25 *29:25 *33:24 4.80729e-05
26 *29:33 *129:A2_N 0.000208138
27 *29:33 *130:C 4.08637e-05
28 *29:35 *129:A2_N 9.76491e-05
29 *29:51 *33:24 0
*RES
1 *128:X *33:18 15.0857 
2 *33:18 *33:24 12.4643 
3 *33:24 *129:A2_N 13.1214 
4 *33:24 *130:C 22.9429 
5 *33:18 *131:A2 9.3 
*END

*D_NET *34 0.0015958
*CONN
*I *133:B I *D sky130_fd_sc_hd__xor2_1
*I *132:A I *D sky130_fd_sc_hd__nor2_1
*I *130:X O *D sky130_fd_sc_hd__and3_1
*CAP
1 *133:B 0
2 *132:A 0.000119355
3 *130:X 0.000413689
4 *34:16 0.000533043
5 *132:A *133:A 3.41517e-06
6 *34:16 *130:A 4.57104e-06
7 *34:16 *168:A 0
8 *34:16 *38:10 6.02724e-05
9 *34:16 *38:16 7.57312e-05
10 *34:16 *38:18 3.08664e-05
11 *147:D *132:A 7.63425e-05
12 *147:D *34:16 0.000278511
*RES
1 *130:X *34:16 25.925 
2 *34:16 *132:A 11.6214 
3 *34:16 *133:B 9.3 
*END

*D_NET *35 0.00206851
*CONN
*I *132:B I *D sky130_fd_sc_hd__nor2_1
*I *131:Y O *D sky130_fd_sc_hd__a21oi_1
*CAP
1 *132:B 0.00059423
2 *131:Y 0.00059423
3 *132:B *128:B 0.000177815
4 *132:B *128:C 0.000169546
5 *132:B *131:B1 0.000223282
6 *132:B *151:A 0
7 *132:B *159:A 0.000193498
8 *130:C *132:B 7.54868e-05
9 *148:D *132:B 4.04221e-05
*RES
1 *131:Y *132:B 40.9929 
*END

*D_NET *36 0.00451068
*CONN
*I *151:A I *D sky130_fd_sc_hd__clkbuf_16
*I *150:A I *D sky130_fd_sc_hd__clkbuf_16
*I *149:X O *D sky130_fd_sc_hd__clkbuf_16
*CAP
1 *151:A 0.000408424
2 *150:A 0.000367358
3 *149:X 0.00019519
4 *36:8 0.000970972
5 *150:A *118:A 9.22586e-05
6 *150:A *128:C 0.000139074
7 *150:A *143:CLK 0
8 *150:A *37:12 0
9 *150:A *39:10 0.000678615
10 *150:A *39:12 5.59013e-05
11 *150:A *39:16 0.000175519
12 *150:A *41:10 0.000166971
13 *151:A *128:C 9.44259e-05
14 *151:A *138:A 0.000552693
15 *151:A *159:A 0.000127029
16 *151:A *38:10 0
17 *151:A *39:10 6.73939e-05
18 q[0] *150:A 0.00015234
19 *132:B *151:A 0
20 *147:RESET_B *36:8 0.000266516
21 *148:D *151:A 0
*RES
1 *149:X *36:8 16.3893 
2 *36:8 *150:A 25.4607 
3 *36:8 *151:A 24.55 
*END

*D_NET *37 0.00457315
*CONN
*I *141:CLK I *D sky130_fd_sc_hd__dfrtp_1
*I *144:CLK I *D sky130_fd_sc_hd__dfrtp_1
*I *142:CLK I *D sky130_fd_sc_hd__dfrtp_1
*I *143:CLK I *D sky130_fd_sc_hd__dfrtp_1
*I *150:X O *D sky130_fd_sc_hd__clkbuf_16
*CAP
1 *141:CLK 4.41591e-05
2 *144:CLK 0.00039238
3 *142:CLK 0
4 *143:CLK 0.00012292
5 *150:X 0.000270023
6 *37:42 0.00127792
7 *37:25 0.00102989
8 *37:12 0.000581451
9 *143:CLK *118:A 0
10 *37:12 *122:A2 0
11 *37:25 *118:A 0
12 *37:25 *51:10 0
13 *37:42 *123:B 0.00022049
14 *37:42 *163:A 0
15 *37:42 *164:A 1.25607e-05
16 *37:42 *41:10 0
17 *37:42 *49:8 5.48674e-05
18 *37:42 *51:10 0
19 q[0] *37:12 0
20 q[2] *144:CLK 6.5185e-05
21 *123:A *144:CLK 0.000126439
22 *141:RESET_B *37:42 6.83178e-05
23 *142:RESET_B *37:12 0.000230854
24 *144:D *144:CLK 7.56856e-05
25 *150:A *143:CLK 0
26 *150:A *37:12 0
*RES
1 *150:X *37:12 18.0054 
2 *37:12 *143:CLK 15.3268 
3 *37:12 *37:25 2.70536 
4 *37:25 *142:CLK 13.8 
5 *37:25 *37:42 15.4464 
6 *37:42 *144:CLK 25.8179 
7 *37:42 *141:CLK 10.0321 
*END

*D_NET *38 0.00393064
*CONN
*I *148:CLK I *D sky130_fd_sc_hd__dfrtp_1
*I *147:CLK I *D sky130_fd_sc_hd__dfrtp_1
*I *146:CLK I *D sky130_fd_sc_hd__dfrtp_1
*I *145:CLK I *D sky130_fd_sc_hd__dfrtp_1
*I *151:X O *D sky130_fd_sc_hd__clkbuf_16
*CAP
1 *148:CLK 6.58691e-05
2 *147:CLK 0
3 *146:CLK 0
4 *145:CLK 0.000127357
5 *151:X 0.000371862
6 *38:18 0.000651896
7 *38:16 0.00067141
8 *38:10 0.000584602
9 *38:16 *130:A 5.89397e-05
10 *38:18 *130:A 0.000118485
11 *38:18 *167:A 0.00029181
12 *38:18 *54:17 5.03616e-05
13 *127:B *145:CLK 9.24395e-05
14 *130:B *38:18 0.000152272
15 *146:RESET_B *38:18 2.51837e-05
16 *147:D *38:10 9.91086e-05
17 *147:D *38:16 0.000231028
18 *148:D *148:CLK 0.000101754
19 *148:D *38:10 6.93944e-05
20 *151:A *38:10 0
21 *34:16 *38:10 6.02724e-05
22 *34:16 *38:16 7.57312e-05
23 *34:16 *38:18 3.08664e-05
*RES
1 *151:X *38:10 19.7464 
2 *38:10 *38:16 8.71429 
3 *38:16 *38:18 11.625 
4 *38:18 *145:CLK 20.55 
5 *38:18 *146:CLK 9.3 
6 *38:16 *147:CLK 9.3 
7 *38:10 *148:CLK 15.175 
*END

*D_NET *39 0.00910123
*CONN
*I *138:A I *D sky130_fd_sc_hd__inv_2
*I *135:A I *D sky130_fd_sc_hd__inv_2
*I *119:A I *D sky130_fd_sc_hd__inv_2
*I *136:A I *D sky130_fd_sc_hd__inv_2
*I *139:A I *D sky130_fd_sc_hd__inv_2
*I *137:A I *D sky130_fd_sc_hd__inv_2
*I *140:A I *D sky130_fd_sc_hd__inv_2
*I *134:A I *D sky130_fd_sc_hd__inv_2
*I *161:X O *D sky130_fd_sc_hd__clkbuf_4
*CAP
1 *138:A 0.000245607
2 *135:A 0
3 *119:A 0
4 *136:A 0
5 *139:A 0.000163409
6 *137:A 0
7 *140:A 0.000567124
8 *134:A 9.9137e-05
9 *161:X 0.000220452
10 *39:48 0.000553333
11 *39:42 0.000472559
12 *39:40 0.000303002
13 *39:16 0.000781003
14 *39:12 0.00036581
15 *39:10 0.000379735
16 *39:8 0.000815092
17 *138:A *129:B2 0.000304208
18 *138:A *155:A 0.00012798
19 *139:A *124:A 1.02504e-05
20 *140:A *122:A2 0.00010096
21 *39:10 *123:B 0.000348995
22 *39:10 *128:A 9.87983e-06
23 *39:10 *129:B2 5.59013e-05
24 *39:10 *52:8 0
25 *39:10 *52:12 0
26 *39:10 *53:19 4.33438e-05
27 *39:12 *123:B 1.02504e-05
28 *39:40 *118:A 0.000186662
29 q[0] *39:16 1.18064e-05
30 q[2] *39:48 0
31 *123:A *39:40 8.18698e-05
32 *123:A *39:42 1.33343e-05
33 *123:A *39:48 0
34 *125:B *139:A 7.2305e-05
35 *125:B *39:48 1.76135e-05
36 *130:C *39:8 9.26203e-05
37 *131:A1 *39:10 2.91794e-05
38 *142:RESET_B *134:A 3.67142e-05
39 *142:RESET_B *140:A 0.000339423
40 *144:D *39:48 0
41 *144:RESET_B *39:42 3.18676e-05
42 *144:RESET_B *39:48 7.43578e-06
43 *145:RESET_B *139:A 0
44 *145:RESET_B *39:48 0
45 *146:RESET_B *138:A 4.87953e-05
46 *150:A *39:10 0.000678615
47 *150:A *39:12 5.59013e-05
48 *150:A *39:16 0.000175519
49 *151:A *138:A 0.000552693
50 *151:A *39:10 6.73939e-05
51 *158:A *140:A 1.32552e-05
52 *29:14 *39:8 0.000610194
*RES
1 *161:X *39:8 19.675 
2 *39:8 *39:10 9.83929 
3 *39:10 *39:12 0.732143 
4 *39:12 *39:16 7.05357 
5 *39:16 *134:A 11.0857 
6 *39:16 *140:A 20.1214 
7 *39:12 *39:40 9.05357 
8 *39:40 *39:42 1.76786 
9 *39:42 *39:48 11.25 
10 *39:48 *137:A 13.8 
11 *39:48 *139:A 16.7107 
12 *39:42 *136:A 9.3 
13 *39:40 *119:A 9.3 
14 *39:10 *135:A 13.8 
15 *39:8 *138:A 22.2643 
*END

*D_NET *40 0.000578211
*CONN
*I *133:A I *D sky130_fd_sc_hd__xor2_1
*I *152:X O *D sky130_fd_sc_hd__dlygate4sd3_1
*CAP
1 *133:A 0.000258824
2 *152:X 0.000258824
3 *133:A *169:A 5.71472e-05
4 *132:A *133:A 3.41517e-06
*RES
1 *152:X *133:A 22.4393 
*END

*D_NET *41 0.00209177
*CONN
*I *120:A I *D sky130_fd_sc_hd__xor2_1
*I *118:A I *D sky130_fd_sc_hd__inv_2
*I *153:X O *D sky130_fd_sc_hd__dlygate4sd3_1
*CAP
1 *120:A 2.39583e-05
2 *118:A 0.000258069
3 *153:X 0.000271933
4 *41:10 0.00055396
5 *120:A *163:A 5.49544e-05
6 *41:10 *128:C 5.41794e-05
7 *41:10 *131:B1 0.000141734
8 q[0] *118:A 2.89114e-05
9 *123:A *118:A 4.22908e-05
10 *143:CLK *118:A 0
11 *143:D *118:A 0.000117543
12 *150:A *118:A 9.22586e-05
13 *150:A *41:10 0.000166971
14 *33:18 *41:10 9.83442e-05
15 *37:25 *118:A 0
16 *37:42 *41:10 0
17 *39:40 *118:A 0.000186662
*RES
1 *153:X *41:10 20.1393 
2 *41:10 *118:A 19.7821 
3 *41:10 *120:A 14.3357 
*END

*D_NET *42 0.00136902
*CONN
*I *120:B I *D sky130_fd_sc_hd__xor2_1
*I *154:X O *D sky130_fd_sc_hd__dlygate4sd3_1
*CAP
1 *120:B 0.000476612
2 *154:X 0.000476612
3 *120:B *163:A 0.000160802
4 *120:B *50:38 7.83659e-05
5 *120:B *51:10 7.70035e-05
6 *142:D *120:B 9.96256e-05
*RES
1 *154:X *120:B 34.8321 
*END

*D_NET *43 0.000633602
*CONN
*I *127:A I *D sky130_fd_sc_hd__xnor2_1
*I *155:X O *D sky130_fd_sc_hd__dlygate4sd3_1
*CAP
1 *127:A 0.000267283
2 *155:X 0.000267283
3 *127:B *127:A 9.90367e-05
*RES
1 *155:X *127:A 23.2429 
*END

*D_NET *44 0.00182049
*CONN
*I *131:B1 I *D sky130_fd_sc_hd__a21oi_1
*I *156:X O *D sky130_fd_sc_hd__dlygate4sd3_1
*CAP
1 *131:B1 0.00046879
2 *156:X 0.00046879
3 *131:B1 *121:B 0.000108375
4 *131:B1 *153:A 9.33439e-05
5 *131:B1 *157:A 0.000139913
6 *132:B *131:B1 0.000223282
7 *148:RESET_B *131:B1 0
8 *161:A *131:B1 3.09981e-05
9 *33:18 *131:B1 0.000145266
10 *41:10 *131:B1 0.000141734
*RES
1 *156:X *131:B1 38.4214 
*END

*D_NET *45 0.00176452
*CONN
*I *122:B1 I *D sky130_fd_sc_hd__a21oi_1
*I *157:X O *D sky130_fd_sc_hd__dlygate4sd3_1
*CAP
1 *122:B1 0.00045096
2 *157:X 0.00045096
3 *122:B1 *122:A1 2.72449e-05
4 *122:B1 *49:10 9.69581e-05
5 *122:B1 *49:38 8.71047e-05
6 *142:RESET_B *122:B1 0.00031639
7 *148:RESET_B *122:B1 0.000334898
*RES
1 *157:X *122:B1 38.6 
*END

*D_NET *46 0.00154051
*CONN
*I *123:B I *D sky130_fd_sc_hd__nor2_1
*I *158:X O *D sky130_fd_sc_hd__dlygate4sd3_1
*CAP
1 *123:B 0.000367581
2 *158:X 0.000367581
3 *123:B *164:A 0.000168742
4 *123:B *49:8 5.68722e-05
5 *123:B *52:8 0
6 *141:D *123:B 0
7 *37:42 *123:B 0.00022049
8 *39:10 *123:B 0.000348995
9 *39:12 *123:B 1.02504e-05
*RES
1 *158:X *123:B 36.9214 
*END

*D_NET *47 0.00171705
*CONN
*I *129:B2 I *D sky130_fd_sc_hd__o2bb2a_1
*I *159:X O *D sky130_fd_sc_hd__dlygate4sd3_1
*CAP
1 *129:B2 0.000227228
2 *159:X 0.000227228
3 *129:B2 *155:A 9.25014e-06
4 *129:B2 *53:19 0.000358387
5 *138:A *129:B2 0.000304208
6 *147:RESET_B *129:B2 0.000347181
7 *29:14 *129:B2 9.41642e-05
8 *29:33 *129:B2 8.74529e-05
9 *29:35 *129:B2 6.05161e-06
10 *39:10 *129:B2 5.59013e-05
*RES
1 *159:X *129:B2 35.6893 
*END

*D_NET *48 0.000753088
*CONN
*I *125:A I *D sky130_fd_sc_hd__xor2_1
*I *160:X O *D sky130_fd_sc_hd__dlygate4sd3_1
*CAP
1 *125:A 0.000257005
2 *160:X 0.000257005
3 *125:B *125:A 0.000133375
4 *145:RESET_B *125:A 0.000105704
*RES
1 *160:X *125:A 32.7786 
*END

*D_NET *49 0.00441023
*CONN
*I *121:A I *D sky130_fd_sc_hd__and3_2
*I *153:A I *D sky130_fd_sc_hd__dlygate4sd3_1
*I *162:A I *D sky130_fd_sc_hd__buf_2
*I *122:A1 I *D sky130_fd_sc_hd__a21oi_1
*I *141:Q O *D sky130_fd_sc_hd__dfrtp_1
*CAP
1 *121:A 0
2 *153:A 0.000157764
3 *162:A 0.000392613
4 *122:A1 7.14377e-05
5 *141:Q 0.000294989
6 *49:38 0.000318593
7 *49:10 0.000613362
8 *49:8 0.00060513
9 *122:A1 *122:A2 2.47186e-05
10 *153:A *157:A 9.71197e-05
11 *162:A *51:10 7.7439e-05
12 *49:8 *154:A 3.97677e-05
13 *49:8 *164:A 7.76838e-05
14 *49:38 *121:B 4.66302e-05
15 *49:38 *157:A 9.90431e-05
16 q[1] *49:10 0.000220192
17 q[1] *49:38 5.71619e-05
18 *122:B1 *122:A1 2.72449e-05
19 *122:B1 *49:10 9.69581e-05
20 *122:B1 *49:38 8.71047e-05
21 *123:B *49:8 5.68722e-05
22 *131:B1 *153:A 9.33439e-05
23 *142:RESET_B *122:A1 0.000125724
24 *142:RESET_B *49:10 0.000198494
25 *143:D *162:A 9.48222e-05
26 *143:RESET_B *162:A 0.000110888
27 *148:RESET_B *49:38 0
28 *158:A *122:A1 5.33882e-05
29 *158:A *49:8 0.000137983
30 *158:A *49:10 7.8894e-05
31 *37:42 *49:8 5.48674e-05
*RES
1 *141:Q *49:8 19.2643 
2 *49:8 *49:10 4.98214 
3 *49:10 *122:A1 16.05 
4 *49:10 *162:A 21.3536 
5 *49:8 *49:38 8.41071 
6 *49:38 *153:A 12.3179 
7 *49:38 *121:A 9.3 
*END

*D_NET *50 0.00478302
*CONN
*I *121:B I *D sky130_fd_sc_hd__and3_2
*I *154:A I *D sky130_fd_sc_hd__dlygate4sd3_1
*I *122:A2 I *D sky130_fd_sc_hd__a21oi_1
*I *163:A I *D sky130_fd_sc_hd__buf_2
*I *142:Q O *D sky130_fd_sc_hd__dfrtp_1
*CAP
1 *121:B 0.000204415
2 *154:A 0.000135674
3 *122:A2 0.000234157
4 *163:A 0.000342468
5 *142:Q 0.000261958
6 *50:38 0.00041326
7 *50:25 0.000307328
8 *50:6 0.000604426
9 *121:B *157:A 2.62951e-05
10 *121:B *51:10 2.39441e-05
11 *121:B *51:25 3.6337e-05
12 *122:A2 *51:10 6.66387e-05
13 *163:A *51:10 0
14 *50:38 *51:10 5.19507e-05
15 q[1] *121:B 1.0562e-05
16 q[1] *163:A 0.000697211
17 q[1] *50:6 2.42516e-05
18 q[1] *50:38 1.08359e-05
19 *120:A *163:A 5.49544e-05
20 *120:B *163:A 0.000160802
21 *120:B *50:38 7.83659e-05
22 *122:A1 *122:A2 2.47186e-05
23 *131:B1 *121:B 0.000108375
24 *140:A *122:A2 0.00010096
25 *142:D *163:A 9.96256e-05
26 *142:RESET_B *122:A2 5.33433e-05
27 *158:A *122:A2 0.000336659
28 *158:A *154:A 5.33005e-05
29 *158:A *50:38 0.000173804
30 *37:12 *122:A2 0
31 *37:42 *163:A 0
32 *49:8 *154:A 3.97677e-05
33 *49:38 *121:B 4.66302e-05
*RES
1 *142:Q *50:6 13.1214 
2 *50:6 *163:A 27.925 
3 *50:6 *50:25 4.5 
4 *50:25 *122:A2 20.0321 
5 *50:25 *50:38 2.55357 
6 *50:38 *154:A 15.9786 
7 *50:38 *121:B 17.9071 
*END

*D_NET *51 0.00456801
*CONN
*I *157:A I *D sky130_fd_sc_hd__dlygate4sd3_1
*I *121:C I *D sky130_fd_sc_hd__and3_2
*I *164:A I *D sky130_fd_sc_hd__buf_2
*I *143:Q O *D sky130_fd_sc_hd__dfrtp_1
*CAP
1 *157:A 8.38299e-05
2 *121:C 0
3 *164:A 0.000928741
4 *143:Q 0.000600276
5 *51:25 0.00014044
6 *51:10 0.00158563
7 *120:B *51:10 7.70035e-05
8 *121:B *157:A 2.62951e-05
9 *121:B *51:10 2.39441e-05
10 *121:B *51:25 3.6337e-05
11 *122:A2 *51:10 6.66387e-05
12 *123:B *164:A 0.000168742
13 *131:B1 *157:A 0.000139913
14 *141:RESET_B *164:A 0.000264685
15 *145:RESET_B *164:A 6.05161e-06
16 *153:A *157:A 9.71197e-05
17 *158:A *164:A 3.69047e-06
18 *162:A *51:10 7.7439e-05
19 *163:A *51:10 0
20 *37:25 *51:10 0
21 *37:42 *164:A 1.25607e-05
22 *37:42 *51:10 0
23 *49:8 *164:A 7.76838e-05
24 *49:38 *157:A 9.90431e-05
25 *50:38 *51:10 5.19507e-05
*RES
1 *143:Q *51:10 22.6036 
2 *51:10 *164:A 26.2821 
3 *51:10 *51:25 1.03571 
4 *51:25 *121:C 13.8 
5 *51:25 *157:A 16.3 
*END

*D_NET *52 0.00282585
*CONN
*I *128:A I *D sky130_fd_sc_hd__and3_1
*I *160:A I *D sky130_fd_sc_hd__dlygate4sd3_1
*I *126:A I *D sky130_fd_sc_hd__and3_1
*I *124:A I *D sky130_fd_sc_hd__nand2_1
*I *165:A I *D sky130_fd_sc_hd__buf_2
*I *144:Q O *D sky130_fd_sc_hd__dfrtp_1
*CAP
1 *128:A 0.000253424
2 *160:A 0
3 *126:A 0
4 *124:A 0.000153893
5 *165:A 0.000102391
6 *144:Q 0.000171737
7 *52:18 0.00031073
8 *52:16 0.000248409
9 *52:12 0.000250775
10 *52:8 0.000481973
11 *52:16 *126:B 0.000225212
12 *123:A *52:8 0
13 *123:A *52:12 0
14 *123:B *52:8 0
15 *125:B *52:16 2.66566e-05
16 *139:A *124:A 1.02504e-05
17 *141:D *52:8 6.65302e-05
18 *141:RESET_B *52:8 1.78353e-05
19 *145:RESET_B *124:A 0
20 *147:RESET_B *124:A 7.5779e-05
21 *147:RESET_B *165:A 4.0342e-06
22 *147:RESET_B *52:18 1.40306e-05
23 *29:70 *52:16 0.000255208
24 *33:18 *128:A 0.00013785
25 *33:24 *52:12 9.25014e-06
26 *39:10 *128:A 9.87983e-06
27 *39:10 *52:8 0
28 *39:10 *52:12 0
*RES
1 *144:Q *52:8 17.1125 
2 *52:8 *52:12 5.38393 
3 *52:12 *52:16 5.48214 
4 *52:16 *52:18 0.946429 
5 *52:18 *165:A 11.0857 
6 *52:18 *124:A 21.5857 
7 *52:16 *126:A 9.3 
8 *52:12 *160:A 9.3 
9 *52:8 *128:A 17.2196 
*END

*D_NET *53 0.00499363
*CONN
*I *155:A I *D sky130_fd_sc_hd__dlygate4sd3_1
*I *128:B I *D sky130_fd_sc_hd__and3_1
*I *126:B I *D sky130_fd_sc_hd__and3_1
*I *166:A I *D sky130_fd_sc_hd__buf_2
*I *145:Q O *D sky130_fd_sc_hd__dfrtp_1
*CAP
1 *155:A 0.000138169
2 *128:B 0.000166309
3 *126:B 0.000319346