*SPEF "ieee 1481-1999"
*DESIGN "counter"
*DATE "14:19:07 Sunday December 14, 2025"
*VENDOR "The OpenROAD Project"
*PROGRAM "OpenROAD"
*VERSION "edf00dff99f6c40d67a30c0e22a8191c5d2ed9d6"
*DESIGN_FLOW "NAME_SCOPE LOCAL" "PIN_CAP NONE"
*DIVIDER /
*DELIMITER :
*BUS_DELIMITER []
*T_UNIT 1 NS
*C_UNIT 1 PF
*R_UNIT 1 OHM
*L_UNIT 1 HENRY

*NAME_MAP
*3 clk
*4 q[0]
*5 q[1]
*6 q[2]
*7 q[3]
*8 q[4]
*9 q[5]
*10 q[6]
*11 q[7]
*12 rst
*13 _00_
*14 _01_
*15 _02_
*16 _03_
*17 _04_
*18 _05_
*19 _06_
*20 _07_
*21 _08_
*22 _09_
*23 _10_
*24 _11_
*25 _12_
*26 _13_
*27 _14_
*28 _15_
*29 _16_
*30 _17_
*31 _18_
*32 _19_
*33 _20_
*34 _21_
*35 _22_
*36 clknet_0_clk
*37 clknet_1_0__leaf_clk
*38 clknet_1_1__leaf_clk
*39 net1
*40 net10
*41 net11
*42 net12
*43 net13
*44 net14
*45 net15
*46 net16
*47 net17
*48 net18
*49 net2
*50 net3
*51 net4
*52 net5
*53 net6
*54 net7
*55 net8
*56 net9
*57 FILLER_0_15
*58 FILLER_0_23
*59 FILLER_0_3
*60 FILLER_1_18
*61 FILLER_1_3
*62 FILLER_1_55
*63 FILLER_2_29
*64 FILLER_2_3
*65 FILLER_3_3
*66 FILLER_3_54
*67 FILLER_4_48
*68 FILLER_4_7
*69 FILLER_5_12
*70 FILLER_5_3
*71 FILLER_5_41
*72 FILLER_6_27
*73 FILLER_6_29
*74 FILLER_6_55
*75 FILLER_7_35
*76 FILLER_8_11
*77 FILLER_8_25
*78 FILLER_8_3
*79 FILLER_8_32
*80 FILLER_8_43
*81 FILLER_8_56
*82 FILLER_9_15
*83 FILLER_9_27
*84 FILLER_9_3
*85 FILLER_9_53
*86 PHY_EDGE_ROW_0_Left_10
*87 PHY_EDGE_ROW_0_Right_0
*88 PHY_EDGE_ROW_1_Left_11
*89 PHY_EDGE_ROW_1_Right_1
*90 PHY_EDGE_ROW_2_Left_12
*91 PHY_EDGE_ROW_2_Right_2
*92 PHY_EDGE_ROW_3_Left_13
*93 PHY_EDGE_ROW_3_Right_3
*94 PHY_EDGE_ROW_4_Left_14
*95 PHY_EDGE_ROW_4_Right_4
*96 PHY_EDGE_ROW_5_Left_15
*97 PHY_EDGE_ROW_5_Right_5
*98 PHY_EDGE_ROW_6_Left_16
*99 PHY_EDGE_ROW_6_Right_6
*100 PHY_EDGE_ROW_7_Left_17
*101 PHY_EDGE_ROW_7_Right_7
*102 PHY_EDGE_ROW_8_Left_18
*103 PHY_EDGE_ROW_8_Right_8
*104 PHY_EDGE_ROW_9_Left_19
*105 PHY_EDGE_ROW_9_Right_9
*106 TAP_TAPCELL_ROW_0_20
*107 TAP_TAPCELL_ROW_0_21
*108 TAP_TAPCELL_ROW_1_22
*109 TAP_TAPCELL_ROW_2_23
*110 TAP_TAPCELL_ROW_3_24
*111 TAP_TAPCELL_ROW_4_25
*112 TAP_TAPCELL_ROW_5_26
*113 TAP_TAPCELL_ROW_6_27
*114 TAP_TAPCELL_ROW_7_28
*115 TAP_TAPCELL_ROW_8_29
*116 TAP_TAPCELL_ROW_9_30
*117 TAP_TAPCELL_ROW_9_31
*118 _23_
*119 _24_
*120 _25_
*121 _26_
*122 _27_
*123 _28_
*124 _29_
*125 _30_
*126 _31_
*127 _32_
*128 _33_
*129 _34_
*130 _35_
*131 _36_
*132 _37_
*133 _38_
*134 _39_
*135 _40_
*136 _41_
*137 _42_
*138 _43_
*139 _44_
*140 _45_
*141 _46_
*142 _47_
*143 _48_
*144 _49_
*145 _50_
*146 _51_
*147 _52_
*148 _53_
*149 clkbuf_0_clk
*150 clkbuf_1_0__f_clk
*151 clkbuf_1_1__f_clk
*152 hold1
*153 hold2
*154 hold3
*155 hold4
*156 hold5
*157 hold6
*158 hold7
*159 hold8
*160 hold9
*161 input1
*162 output2
*163 output3
*164 output4
*165 output5
*166 output6
*167 output7
*168 output8
*169 output9

*PORTS
clk I
q[0] O
q[1] O
q[2] O
q[3] O
q[4] O
q[5] O
q[6] O
q[7] O
rst I

*D_NET *3 0.00210233
*CONN
*P clk I
*I *149:A I *D sky130_fd_sc_hd__clkbuf_16
*CAP
1 clk 0.000902781
2 *149:A 0
3 *3:11 0.000902781
4 *3:11 q[2] 0
5 *3:11 q[3] 3.12475e-05
6 *3:11 q[5] 8.97484e-05
7 *3:11 *29:51 1.22803e-05
8 *3:11 *32:10 0.000120728
9 *3:11 *33:24 4.27684e-05
*RES
1 clk *3:11 27.3853 
2 *3:11 *149:A 23 
*END

*D_NET *4 0.00136626
*CONN
*P q[0] O
*I *162:X O *D sky130_fd_sc_hd__buf_2
*CAP
1 q[0] 0.000572071
2 *162:X 0.000572071
3 q[0] *118:A 2.93845e-05
4 q[0] *15:6 1.16862e-05
5 q[0] *36:12 0.000168754
6 q[0] *37:12 0
7 q[0] *39:16 1.22906e-05
*RES
1 *162:X q[0] 49.9107 
*END

*D_NET *5 0.00409649
*CONN
*P q[1] O
*I *163:X O *D sky130_fd_sc_hd__buf_2
*CAP
1 q[1] 0.00043804
2 *163:X 0.000816151
3 *5:8 0.00125419
4 q[1] q[2] 0.000130669
5 q[1] *121:B 1.09886e-05
6 q[1] *161:A 0.000133554
7 q[1] *30:10 0.000267951
8 q[1] *49:10 0.000243316
9 q[1] *49:38 6.27951e-05
10 q[1] *50:38 1.12487e-05
11 *5:8 *50:6 2.43944e-05
12 *5:8 *50:18 0.000703191
*RES
1 *163:X *5:8 49.5793 
2 *5:8 q[1] 13.5536 
*END

*D_NET *6 0.00442103
*CONN
*P q[2] O
*I *164:X O *D sky130_fd_sc_hd__buf_2
*CAP
1 q[2] 0.0019205
2 *164:X 0.000158197
3 *6:12 0.0020787
4 q[2] *161:A 0
5 *6:12 *123:A 1.00612e-05
6 *6:12 *25:12 5.50049e-05
7 *6:12 *37:50 6.79006e-05
8 *6:12 *39:48 0
9 q[1] q[2] 0.000130669
10 *3:11 q[2] 0
*RES
1 *164:X *6:12 49.0554 
2 *6:12 q[2] 4.19253 
*END

*D_NET *7 0.0008162
*CONN
*P q[3] O
*I *165:X O *D sky130_fd_sc_hd__buf_2
*CAP
1 q[3] 9.86661e-05
2 *165:X 0.00029381
3 *7:10 0.000392476
4 *3:11 q[3] 3.12475e-05
*RES
1 *165:X *7:10 42.5054 
2 *7:10 q[3] 8.4816 
*END

*D_NET *8 0.000761479
*CONN
*P q[4] O
*I *166:X O *D sky130_fd_sc_hd__buf_2
*CAP
1 q[4] 8.65766e-05
2 *166:X 0.000278539
3 *8:14 0.000365116
4 q[4] q[5] 1.5289e-05
5 *8:14 q[5] 1.59585e-05
*RES
1 *166:X *8:14 49.9 
2 *8:14 q[4] 0.382667 
*END

*D_NET *9 0.000517909
*CONN
*P q[5] O
*I *167:X O *D sky130_fd_sc_hd__buf_2
*CAP
1 q[5] 0.000198457
2 *167:X 0.000198457
3 q[4] q[5] 1.5289e-05
4 *3:11 q[5] 8.97484e-05
5 *8:14 q[5] 1.59585e-05
*RES
1 *167:X q[5] 47.1648 
*END

*D_NET *10 0.00186673
*CONN
*P q[6] O
*I *168:X O *D sky130_fd_sc_hd__buf_2
*CAP
1 q[6] 0.000235152
2 *168:X 0.000369082
3 *10:10 0.000604234
4 q[6] q[7] 9.88095e-05
5 q[6] *161:A 0.000114277
6 *10:10 *147:RESET_B 3.87473e-05
7 *10:10 *148:RESET_B 0.000166962
8 *10:10 *55:23 0.000193572
9 *10:10 *56:8 4.58924e-05
*RES
1 *168:X *10:10 47.3939 
2 *10:10 q[6] 9.10133 
*END

*D_NET *11 0.00135131
*CONN
*P q[7] O
*I *169:X O *D sky130_fd_sc_hd__buf_2
*CAP
1 q[7] 0.000494673
2 *169:X 0.000131579
3 *11:10 0.000626252
4 q[7] *161:A 0
5 *11:10 *55:23 0
6 q[6] q[7] 9.88095e-05
*RES
1 *169:X *11:10 48.4339 
2 *11:10 q[7] 1.7024 
*END

*D_NET *12 0.00135565
*CONN
*P rst I
*I *161:A I *D sky130_fd_sc_hd__clkbuf_4
*CAP
1 rst 0.000523065
2 *161:A 0.000523065
3 *161:A *147:RESET_B 0
4 *161:A *148:RESET_B 0
5 *161:A *29:8 2.9978e-05
6 *161:A *44:8 3.17098e-05
7 q[1] *161:A 0.000133554
8 q[2] *161:A 0
9 q[6] *161:A 0.000114277
10 q[7] *161:A 0
*RES
1 rst *161:A 49.6983 
*END

*D_NET *13 0.000990296
*CONN
*I *141:D I *D sky130_fd_sc_hd__dfrtp_1
*I *118:Y O *D sky130_fd_sc_hd__inv_2
*CAP
1 *141:D 0
2 *118:Y 0.000234071
3 *13:10 0.000234071
4 *13:10 *123:A 0.00010018
5 *13:10 *21:8 0.00035263
6 *13:10 *46:10 0
7 *13:10 *52:8 6.93449e-05
*RES
1 *118:Y *13:10 43.8207 
2 *13:10 *141:D 38 
*END

*D_NET *14 0.000307571
*CONN
*I *142:D I *D sky130_fd_sc_hd__dfrtp_1
*I *120:X O *D sky130_fd_sc_hd__xor2_1
*CAP
1 *142:D 5.17754e-05
2 *120:X 5.17754e-05
3 *142:D *120:B 0.00010201
4 *142:D *50:18 0.00010201
*RES
1 *120:X *142:D 48.0507 
*END

*D_NET *15 0.00106986
*CONN
*I *143:D I *D sky130_fd_sc_hd__dfrtp_1
*I *123:Y O *D sky130_fd_sc_hd__nor2_1
*CAP
1 *143:D 0
2 *123:Y 0.000219394
3 *15:6 0.000219394
4 *15:6 *118:A 0.000119467
5 *15:6 *143:RESET_B 0.000402392
6 *15:6 *162:A 9.75313e-05
7 q[0] *15:6 1.16862e-05
*RES
1 *123:Y *15:6 28.8621 
2 *15:6 *143:D 23 
*END

*D_NET *16 0.000417607
*CONN
*I *144:D I *D sky130_fd_sc_hd__dfrtp_1
*I *125:X O *D sky130_fd_sc_hd__xor2_1
*CAP
1 *144:D 9.05082e-05
2 *125:X 7.99533e-05
3 *16:8 0.000170462
4 *144:D *37:50 7.66837e-05
5 *16:8 *39:48 0
*RES
1 *125:X *16:8 39.2014 
2 *16:8 *144:D 39.4759 
*END

*D_NET *17 0.000240566
*CONN
*I *145:D I *D sky130_fd_sc_hd__dfrtp_1
*I *127:Y O *D sky130_fd_sc_hd__xnor2_1
*CAP
1 *145:D 0
2 *127:Y 6.21258e-05
3 *17:8 6.21258e-05
4 *17:8 *145:RESET_B 0
5 *17:8 *31:8 0.000116314
*RES
1 *127:Y *17:8 39.5536 
2 *17:8 *145:D 38 
*END

*D_NET *18 0.000538814
*CONN
*I *146:D I *D sky130_fd_sc_hd__dfrtp_1
*I *129:X O *D sky130_fd_sc_hd__o2bb2a_1
*CAP
1 *146:D 0
2 *129:X 0.000182456
3 *18:10 0.000182456
4 *18:10 *124:B 5.70419e-05
5 *18:10 *145:RESET_B 0
6 *18:10 *27:20 3.70553e-06
7 *18:10 *31:8 0.000113153
*RES
1 *129:X *18:10 41.1279 
2 *18:10 *146:D 38 
*END

*D_NET *19 0.00164527
*CONN
*I *147:D I *D sky130_fd_sc_hd__dfrtp_1
*I *132:Y O *D sky130_fd_sc_hd__nor2_1
*CAP
1 *147:D 1.63422e-05
2 *132:Y 0.000403488
3 *19:10 0.00041983
4 *147:D *130:A 5.67058e-05
5 *147:D *34:14 9.88574e-06
6 *147:D *38:16 7.53384e-06
7 *19:10 *132:A 7.81909e-05
8 *19:10 *34:14 0.000296937
9 *19:10 *38:10 0.000108681
10 *19:10 *38:16 0.000247678
11 *19:10 *55:23 0
*RES
1 *132:Y *19:10 45.9543 
2 *19:10 *147:D 38.6214 
*END

*D_NET *20 0.000694585
*CONN
*I *148:D I *D sky130_fd_sc_hd__dfrtp_1
*I *133:X O *D sky130_fd_sc_hd__xor2_1
*CAP
1 *148:D 0.000144533
2 *133:X 9.57561e-05
3 *20:8 0.000240289
4 *148:D *148:CLK 0.000103299
5 *20:8 *132:B 3.87236e-05
6 *20:8 *36:21 0
7 *20:8 *38:10 7.19844e-05
*RES
1 *133:X *20:8 40.2579 
2 *20:8 *148:D 40.0714 
*END

*D_NET *21 0.00153143
*CONN
*I *141:RESET_B I *D sky130_fd_sc_hd__dfrtp_1
*I *119:Y O *D sky130_fd_sc_hd__inv_2
*CAP
1 *141:RESET_B 8.56613e-05
2 *119:Y 0.000125075
3 *21:8 0.000210736
4 *141:RESET_B *37:42 6.79493e-05
5 *141:RESET_B *51:18 0.000263165
6 *21:8 *123:A 0.000408221
7 *21:8 *52:8 1.7992e-05
8 *13:10 *21:8 0.00035263
*RES
1 *119:Y *21:8 43.4271 
2 *21:8 *141:RESET_B 17.9311 
*END

*D_NET *22 0.00274873
*CONN
*I *142:RESET_B I *D sky130_fd_sc_hd__dfrtp_1
*I *134:Y O *D sky130_fd_sc_hd__inv_2
*CAP
1 *142:RESET_B 0.00012496
2 *134:Y 0.000492437
3 *22:6 0.000617397
4 *142:RESET_B *122:A1 0.000138718
5 *142:RESET_B *122:B1 0.000350063
6 *142:RESET_B *49:10 0.000219639
7 *22:6 *122:A2 5.41385e-05
8 *22:6 *134:A 3.71251e-05
9 *22:6 *140:A 0.0003408
10 *22:6 *30:10 0.000139346
11 *22:6 *37:12 0.000234104
*RES
1 *134:Y *22:6 35.0557 
2 *22:6 *142:RESET_B 34.7229 
*END

*D_NET *23 0.00136182
*CONN
*I *143:RESET_B I *D sky130_fd_sc_hd__dfrtp_1
*I *135:Y O *D sky130_fd_sc_hd__inv_2
*CAP
1 *143:RESET_B 0.000422291
2 *135:Y 0.000422291
3 *143:RESET_B *162:A 0.000114843
4 *15:6 *143:RESET_B 0.000402392
*RES
1 *135:Y *143:RESET_B 30.3846 
*END

*D_NET *24 0.000305782
*CONN
*I *144:RESET_B I *D sky130_fd_sc_hd__dfrtp_1
*I *136:Y O *D sky130_fd_sc_hd__inv_2
*CAP
1 *144:RESET_B 0
2 *136:Y 0.00013298
3 *24:10 0.00013298
4 *24:10 *123:A 0
5 *24:10 *39:42 3.22879e-05
6 *24:10 *39:48 7.53384e-06
*RES
1 *136:Y *24:10 40.175 
2 *24:10 *144:RESET_B 15 
*END

*D_NET *25 0.00234213
*CONN
*I *145:RESET_B I *D sky130_fd_sc_hd__dfrtp_1
*I *137:Y O *D sky130_fd_sc_hd__inv_2
*CAP
1 *145:RESET_B 0.000667243
2 *137:Y 0.0001594
3 *25:12 0.000826642
4 *145:RESET_B *123:A 0.000205055
5 *145:RESET_B *130:B 0
6 *145:RESET_B *139:A 0
7 *145:RESET_B *26:10 0
8 *145:RESET_B *27:10 0
9 *145:RESET_B *29:51 0.00025168
10 *145:RESET_B *29:80 0
11 *145:RESET_B *31:8 0
12 *145:RESET_B *33:24 0
13 *145:RESET_B *48:8 5.56306e-05
14 *145:RESET_B *52:35 0
15 *25:12 *123:A 5.62433e-06
16 *25:12 *125:A 5.29672e-05
17 *25:12 *29:80 5.67058e-05
18 *25:12 *39:48 0
19 *25:12 *51:18 6.17437e-06
20 *6:12 *25:12 5.50049e-05
21 *17:8 *145:RESET_B 0
22 *18:10 *145:RESET_B 0
*RES
1 *137:Y *25:12 41.4696 
2 *25:12 *145:RESET_B 27.2939 
*END

*D_NET *26 0.00140638
*CONN
*I *146:RESET_B I *D sky130_fd_sc_hd__dfrtp_1
*I *138:Y O *D sky130_fd_sc_hd__inv_2
*CAP
1 *146:RESET_B 1.29418e-05
2 *138:Y 0.000472167
3 *26:10 0.000485109
4 *146:RESET_B *167:A 5.00902e-05
5 *146:RESET_B *38:18 2.56078e-05
6 *26:10 *130:B 0.000117254
7 *26:10 *138:A 4.96717e-05
8 *26:10 *155:A 0.000158763
9 *26:10 *53:19 3.47776e-05
10 *145:RESET_B *26:10 0
*RES
1 *138:Y *26:10 46.4307 
2 *26:10 *146:RESET_B 15.5489 
*END

*D_NET *27 0.00446881
*CONN
*I *147:RESET_B I *D sky130_fd_sc_hd__dfrtp_1
*I *139:Y O *D sky130_fd_sc_hd__inv_2
*CAP
1 *147:RESET_B 0.000154991
2 *139:Y 0.000125267
3 *27:20 0.00129197
4 *27:10 0.00126225
5 *147:RESET_B *148:RESET_B 0
6 *147:RESET_B *55:23 6.48142e-05
7 *27:10 *165:A 4.04598e-06
8 *27:10 *52:18 1.39317e-05
9 *27:10 *52:35 8.27285e-05
10 *27:20 *124:B 7.54207e-05
11 *27:20 *129:B2 0.000346297
12 *27:20 *29:14 0.000677463
13 *27:20 *29:35 5.84681e-05
14 *27:20 *36:8 0.000268703
15 *145:RESET_B *27:10 0
16 *161:A *147:RESET_B 0
17 *10:10 *147:RESET_B 3.87473e-05
18 *18:10 *27:20 3.70553e-06
*RES
1 *139:Y *27:10 39.8229 
2 *27:10 *27:20 49.8443 
3 *27:20 *147:RESET_B 18.3143 
*END

*D_NET *28 0.00262912
*CONN
*I *148:RESET_B I *D sky130_fd_sc_hd__dfrtp_1
*I *140:Y O *D sky130_fd_sc_hd__inv_2
*CAP
1 *148:RESET_B 0.000987652
2 *140:Y 0
3 *28:6 0.000987652
4 *148:RESET_B *122:B1 0.000348548
5 *148:RESET_B *44:8 0
6 *148:RESET_B *49:38 0
7 *148:RESET_B *55:36 0.000138304
8 *147:RESET_B *148:RESET_B 0
9 *161:A *148:RESET_B 0
10 *10:10 *148:RESET_B 0.000166962
*RES
1 *140:Y *28:6 38 
2 *28:6 *148:RESET_B 35.5382 
*END

*D_NET *29 0.00906886
*CONN
*I *130:B I *D sky130_fd_sc_hd__and3_1
*I *126:C I *D sky130_fd_sc_hd__and3_1
*I *125:B I *D sky130_fd_sc_hd__xor2_1
*I *123:A I *D sky130_fd_sc_hd__nor2_1
*I *129:A1_N I *D sky130_fd_sc_hd__o2bb2a_1
*I *124:B I *D sky130_fd_sc_hd__nand2_1
*I *131:A1 I *D sky130_fd_sc_hd__a21oi_1
*I *121:X O *D sky130_fd_sc_hd__and3_2
*CAP
1 *130:B 0.000402137
2 *126:C 0
3 *125:B 0
4 *123:A 0.000408324
5 *129:A1_N 0
6 *124:B 5.30346e-05
7 *131:A1 8.81117e-05
8 *121:X 0.000109652
9 *29:80 0.00021439
10 *29:70 0.000350416
11 *29:51 0.000693293
12 *29:35 0.000118063
13 *29:33 0.000333488
14 *29:25 0.000540224
15 *29:14 0.000329446
16 *29:8 0.000332416
17 *123:A *118:A 4.37033e-05
18 *123:A *37:50 0.000139647
19 *123:A *39:40 8.29052e-05
20 *123:A *39:42 1.32314e-05
21 *123:A *39:48 0
22 *123:A *52:8 0
23 *123:A *52:12 0
24 *124:B *129:A2_N 6.72664e-06
25 *130:B *33:24 2.46345e-05
26 *130:B *38:18 0.000155543
27 *130:B *53:19 0.000241355
28 *131:A1 *33:24 0.000218013
29 *131:A1 *39:10 2.96805e-05
30 *131:A1 *53:19 0.000133316
31 *29:14 *129:B2 9.41704e-05
32 *29:14 *33:41 3.28795e-05
33 *29:14 *39:8 0.000616126
34 *29:25 *33:24 5.33597e-05
35 *29:25 *53:19 6.25829e-05
36 *29:33 *129:A2_N 0.000207279
37 *29:33 *129:B2 8.849e-05
38 *29:33 *33:41 4.08664e-05
39 *29:35 *129:A2_N 9.91701e-05
40 *29:35 *129:B2 6.17437e-06
41 *29:51 *32:10 0.000131997
42 *29:51 *33:24 0
43 *29:70 *52:16 0.00025386
44 *29:80 *125:A 9.91798e-05
45 *29:80 *139:A 7.48498e-05
46 *29:80 *39:48 1.83667e-05
47 *29:80 *48:8 3.5664e-05
48 *29:80 *52:16 2.66577e-05
49 *145:RESET_B *123:A 0.000205055
50 *145:RESET_B *130:B 0
51 *145:RESET_B *29:51 0.00025168
52 *145:RESET_B *29:80 0
53 *161:A *29:8 2.9978e-05
54 *3:11 *29:51 1.22803e-05
55 *6:12 *123:A 1.00612e-05
56 *13:10 *123:A 0.00010018
57 *18:10 *124:B 5.70419e-05
58 *21:8 *123:A 0.000408221
59 *24:10 *123:A 0
60 *25:12 *123:A 5.62433e-06
61 *25:12 *29:80 5.67058e-05
62 *26:10 *130:B 0.000117254
63 *27:20 *124:B 7.54207e-05
64 *27:20 *29:14 0.000677463
65 *27:20 *29:35 5.84681e-05
*RES
1 *121:X *29:8 39.9057 
2 *29:8 *29:14 38.7207 
3 *29:14 *131:A1 40.9621 
4 *29:14 *29:25 0.849286 
5 *29:25 *29:33 18.6457 
6 *29:33 *29:35 2.06625 
7 *29:35 *124:B 25.0352 
8 *29:35 *129:A1_N 23 
9 *29:33 *29:51 18.6664 
10 *29:51 *123:A 49.1857 
11 *29:51 *29:70 17.8379 
12 *29:70 *29:80 34.9714 
13 *29:80 *125:B 23 
14 *29:70 *126:C 23 
15 *29:25 *130:B 44.7943 
*END

*D_NET *30 0.00219449
*CONN
*I *158:A I *D sky130_fd_sc_hd__dlygate4sd3_1
*I *122:Y O *D sky130_fd_sc_hd__a21oi_1
*CAP
1 *158:A 6.45145e-05
2 *122:Y 0.000374223
3 *30:10 0.000438737
4 *158:A *154:A 5.3304e-05
5 *158:A *49:8 0.000137651
6 *158:A *51:18 3.7122e-06
7 *30:10 *122:A1 5.56203e-05
8 *30:10 *122:A2 0.000371881
9 *30:10 *140:A 1.32939e-05
10 *30:10 *49:10 8.2166e-05
11 *30:10 *50:38 0.000192087
12 q[1] *30:10 0.000267951
13 *22:6 *30:10 0.000139346
*RES
1 *122:Y *30:10 47.5907 
2 *30:10 *158:A 39.5743 
*END

*D_NET *31 0.00127664
*CONN
*I *127:B I *D sky130_fd_sc_hd__xnor2_1
*I *124:Y O *D sky130_fd_sc_hd__nand2_1
*CAP
1 *127:B 4.56652e-05
2 *124:Y 0.000380484
3 *31:8 0.000426149
4 *127:B *43:6 9.84794e-05
5 *31:8 *38:24 9.63918e-05
6 *145:RESET_B *31:8 0
7 *17:8 *31:8 0.000116314
8 *18:10 *31:8 0.000113153
*RES
1 *124:Y *31:8 45.8921 
2 *31:8 *127:B 39.0979 
*END

*D_NET *32 0.000981511
*CONN
*I *129:B1 I *D sky130_fd_sc_hd__o2bb2a_1
*I *126:X O *D sky130_fd_sc_hd__and3_1
*CAP
1 *129:B1 0
2 *126:X 0.000251696
3 *32:10 0.000251696
4 *32:10 *126:B 0.000225393
5 *3:11 *32:10 0.000120728
6 *29:51 *32:10 0.000131997
*RES
1 *126:X *32:10 42.4329 
2 *32:10 *129:B1 38 
*END

*D_NET *33 0.00371388
*CONN
*I *131:A2 I *D sky130_fd_sc_hd__a21oi_1
*I *130:C I *D sky130_fd_sc_hd__and3_1
*I *129:A2_N I *D sky130_fd_sc_hd__o2bb2a_1
*I *128:X O *D sky130_fd_sc_hd__and3_1
*CAP
1 *131:A2 0
2 *130:C 0
3 *129:A2_N 0.000290831
4 *128:X 0.000241868
5 *33:41 0.00039347
6 *33:24 0.000857898
7 *33:18 0.000415465
8 *33:18 *126:B 3.06338e-05
9 *33:18 *128:A 0.000139902
10 *33:18 *128:B 9.24795e-06
11 *33:18 *128:C 6.04112e-05
12 *33:18 *131:B1 0.000146902
13 *33:18 *41:10 0.000100069
14 *33:24 *52:12 1.01436e-05
15 *33:41 *128:C 8.4047e-05
16 *33:41 *130:A 1.95448e-05
17 *33:41 *159:A 1.01436e-05
18 *33:41 *35:18 8.29264e-05
19 *33:41 *39:8 9.46813e-05
20 *124:B *129:A2_N 6.72664e-06
21 *130:B *33:24 2.46345e-05
22 *131:A1 *33:24 0.000218013
23 *145:RESET_B *33:24 0
24 *3:11 *33:24 4.27684e-05
25 *29:14 *33:41 3.28795e-05
26 *29:25 *33:24 5.33597e-05
27 *29:33 *129:A2_N 0.000207279
28 *29:33 *33:41 4.08664e-05
29 *29:35 *129:A2_N 9.91701e-05
30 *29:51 *33:24 0
*RES
1 *128:X *33:18 29.7114 
2 *33:18 *33:24 34.0186 
3 *33:24 *129:A2_N 27.4329 
4 *33:24 *33:41 35.3857 
5 *33:41 *130:C 23 
6 *33:18 *131:A2 23 
*END

*D_NET *34 0.00177309
*CONN
*I *133:B I *D sky130_fd_sc_hd__xor2_1
*I *132:A I *D sky130_fd_sc_hd__nor2_1
*I *130:X O *D sky130_fd_sc_hd__and3_1
*CAP
1 *133:B 0
2 *132:A 0.000139522
3 *130:X 0.000462293
4 *34:16 0.000139522
5 *34:14 0.000462293
6 *132:A *40:8 3.23857e-06
7 *34:14 *130:A 4.34488e-06
8 *34:14 *38:10 6.59441e-05
9 *34:14 *38:16 7.87147e-05
10 *34:14 *38:18 3.22051e-05
11 *34:14 *55:23 0
12 *147:D *34:14 9.88574e-06
13 *19:10 *132:A 7.81909e-05
14 *19:10 *34:14 0.000296937
*RES
1 *130:X *34:14 46.845 
2 *34:14 *34:16 15 
3 *34:16 *132:A 25.6929 
4 *34:16 *133:B 23 
*END

*D_NET *35 0.00232563
*CONN
*I *132:B I *D sky130_fd_sc_hd__nor2_1
*I *131:Y O *D sky130_fd_sc_hd__a21oi_1
*CAP
1 *132:B 0.000174898
2 *131:Y 0.000528971
3 *35:18 0.00070387
4 *132:B *159:A 5.62433e-06
5 *132:B *36:21 0
6 *35:18 *128:B 0.000177604
7 *35:18 *128:C 0.00018389
8 *35:18 *131:B1 0.00022341
9 *35:18 *159:A 0.000205709
10 *20:8 *132:B 3.87236e-05
11 *33:41 *35:18 8.29264e-05
*RES
1 *131:Y *35:18 49.7761 
2 *35:18 *132:B 41.7596 
*END

*D_NET *36 0.00514993
*CONN
*I *151:A I *D sky130_fd_sc_hd__clkbuf_16
*I *150:A I *D sky130_fd_sc_hd__clkbuf_16
*I *149:X O *D sky130_fd_sc_hd__clkbuf_16
*CAP
1 *151:A 0
2 *150:A 0
3 *149:X 0.000215499
4 *36:21 0.000487024
5 *36:12 0.000483989
6 *36:8 0.00118651
7 *36:12 *118:A 9.54216e-05
8 *36:12 *128:C 0.000150154
9 *36:12 *143:CLK 0
10 *36:12 *37:12 0
11 *36:12 *39:10 0.000747756
12 *36:12 *39:12 6.16531e-05
13 *36:12 *39:16 0.000194318
14 *36:12 *41:10 0.000174025
15 *36:21 *128:C 9.8139e-05
16 *36:21 *138:A 0.000611554
17 *36:21 *159:A 0.000132532
18 *36:21 *38:10 0
19 *36:21 *39:10 7.39034e-05
20 q[0] *36:12 0.000168754
21 *132:B *36:21 0
22 *20:8 *36:21 0
23 *27:20 *36:8 0.000268703
*RES
1 *149:X *36:8 41.0036 
2 *36:8 *36:12 28.5264 
3 *36:12 *150:A 23 
4 *36:8 *36:21 27.47 
5 *36:21 *151:A 23 
*END

*D_NET *37 0.00502888
*CONN
*I *141:CLK I *D sky130_fd_sc_hd__dfrtp_1
*I *144:CLK I *D sky130_fd_sc_hd__dfrtp_1
*I *142:CLK I *D sky130_fd_sc_hd__dfrtp_1
*I *143:CLK I *D sky130_fd_sc_hd__dfrtp_1
*I *150:X O *D sky130_fd_sc_hd__clkbuf_16
*CAP
1 *141:CLK 4.92053e-05
2 *144:CLK 0
3 *142:CLK 0
4 *143:CLK 0.000139097
5 *150:X 0.000291245
6 *37:50 0.000439524
7 *37:42 0.00142329
8 *37:25 0.00115487
9 *37:12 0.000650649
10 *143:CLK *118:A 0
11 *37:12 *122:A2 0
12 *37:25 *118:A 0
13 *37:25 *51:10 0
14 *37:42 *41:10 0
15 *37:42 *46:10 0.000226922
16 *37:42 *49:8 5.55172e-05
17 *37:42 *50:18 0
18 *37:42 *51:10 0
19 *37:42 *51:18 1.22715e-05
20 q[0] *37:12 0
21 *123:A *37:50 0.000139647
22 *141:RESET_B *37:42 6.79493e-05
23 *144:D *37:50 7.66837e-05
24 *6:12 *37:50 6.79006e-05
25 *22:6 *37:12 0.000234104
26 *36:12 *143:CLK 0
27 *36:12 *37:12 0
*RES
1 *150:X *37:12 42.8782 
2 *37:12 *143:CLK 39.7711 
3 *37:12 *37:25 3.13821 
4 *37:25 *142:CLK 38 
5 *37:25 *37:42 27.6979 
6 *37:42 *37:50 38.7207 
7 *37:50 *144:CLK 23 
8 *37:42 *141:CLK 23.8493 
*END

*D_NET *38 0.00437696
*CONN
*I *148:CLK I *D sky130_fd_sc_hd__dfrtp_1
*I *147:CLK I *D sky130_fd_sc_hd__dfrtp_1
*I *146:CLK I *D sky130_fd_sc_hd__dfrtp_1
*I *145:CLK I *D sky130_fd_sc_hd__dfrtp_1
*I *151:X O *D sky130_fd_sc_hd__clkbuf_16
*CAP
1 *148:CLK 7.59883e-05
2 *147:CLK 0
3 *146:CLK 0
4 *145:CLK 0
5 *151:X 0.000416214
6 *38:24 0.000150229
7 *38:18 0.00076449
8 *38:16 0.000784708
9 *38:10 0.000662649
10 *38:16 *130:A 6.10591e-05
11 *38:18 *130:A 0.000122222
12 *38:18 *167:A 0.00029512
13 *38:18 *54:17 5.06994e-05
14 *130:B *38:18 0.000155543
15 *146:RESET_B *38:18 2.56078e-05
16 *147:D *38:16 7.53384e-06
17 *148:D *148:CLK 0.000103299
18 *19:10 *38:10 0.000108681
19 *19:10 *38:16 0.000247678
20 *20:8 *38:10 7.19844e-05
21 *31:8 *38:24 9.63918e-05
22 *34:14 *38:10 6.59441e-05
23 *34:14 *38:16 7.87147e-05
24 *34:14 *38:18 3.22051e-05
25 *36:21 *38:10 0
*RES
1 *151:X *38:10 44.8979 
2 *38:10 *38:16 19.8886 
3 *38:16 *38:18 13.485 
4 *38:18 *38:24 32.61 
5 *38:24 *145:CLK 23 
6 *38:18 *146:CLK 23 
7 *38:16 *147:CLK 23 
8 *38:10 *148:CLK 39.595 
*END

*D_NET *39 0.0100984
*CONN
*I *138:A I *D sky130_fd_sc_hd__inv_2
*I *135:A I *D sky130_fd_sc_hd__inv_2
*I *119:A I *D sky130_fd_sc_hd__inv_2
*I *136:A I *D sky130_fd_sc_hd__inv_2
*I *139:A I *D sky130_fd_sc_hd__inv_2
*I *137:A I *D sky130_fd_sc_hd__inv_2
*I *140:A I *D sky130_fd_sc_hd__inv_2
*I *134:A I *D sky130_fd_sc_hd__inv_2
*I *161:X O *D sky130_fd_sc_hd__clkbuf_4
*CAP
1 *138:A 0.000306601
2 *135:A 0
3 *119:A 0
4 *136:A 0
5 *139:A 0.000190188
6 *137:A 0
7 *140:A 0.000619324
8 *134:A 0.000105548
9 *161:X 0.000251286
10 *39:48 0.000621832
11 *39:42 0.000518668
12 *39:40 0.000320698
13 *39:16 0.000857324
14 *39:12 0.000403721
15 *39:10 0.00049537
16 *39:8 0.00101566
17 *138:A *155:A 0.000133553
18 *138:A *47:8 0.000336081
19 *139:A *52:35 1.14452e-05
20 *140:A *122:A2 0.00010018
21 *39:10 *128:A 1.02561e-05
22 *39:10 *46:10 0.000385097
23 *39:10 *47:8 6.16531e-05
24 *39:10 *52:8 0
25 *39:10 *52:12 0
26 *39:10 *53:19 4.49946e-05
27 *39:12 *46:10 1.14452e-05
28 *39:40 *118:A 0.000185428
29 q[0] *39:16 1.22906e-05
30 *123:A *39:40 8.29052e-05
31 *123:A *39:42 1.32314e-05
32 *123:A *39:48 0
33 *131:A1 *39:10 2.96805e-05
34 *145:RESET_B *139:A 0
35 *6:12 *39:48 0
36 *16:8 *39:48 0
37 *22:6 *134:A 3.71251e-05
38 *22:6 *140:A 0.0003408
39 *24:10 *39:42 3.22879e-05
40 *24:10 *39:48 7.53384e-06
41 *25:12 *39:48 0
42 *26:10 *138:A 4.96717e-05
43 *29:14 *39:8 0.000616126
44 *29:80 *139:A 7.48498e-05
45 *29:80 *39:48 1.83667e-05
46 *30:10 *140:A 1.32939e-05
47 *33:41 *39:8 9.46813e-05
48 *36:12 *39:10 0.000747756
49 *36:12 *39:12 6.16531e-05
50 *36:12 *39:16 0.000194318
51 *36:21 *138:A 0.000611554
52 *36:21 *39:10 7.39034e-05
*RES
1 *161:X *39:8 44.815 
2 *39:8 *39:10 11.4136 
3 *39:10 *39:12 0.849286 
4 *39:12 *39:16 17.9621 
5 *39:16 *134:A 25.0714 
6 *39:16 *140:A 35.5529 
7 *39:12 *39:40 20.2821 
8 *39:40 *39:42 2.05071 
9 *39:42 *39:48 22.83 
10 *39:48 *137:A 38 
11 *39:48 *139:A 41.3764 
12 *39:42 *136:A 23 
13 *39:40 *119:A 23 
14 *39:10 *135:A 38 
15 *39:8 *138:A 47.8186 
*END

*D_NET *40 0.000636665
*CONN
*I *133:A I *D sky130_fd_sc_hd__xor2_1
*I *152:X O *D sky130_fd_sc_hd__dlygate4sd3_1
*CAP
1 *133:A 0
2 *152:X 0.00028836
3 *40:8 0.00028836
4 *40:8 *169:A 5.67058e-05
5 *132:A *40:8 3.23857e-06
*RES
1 *152:X *40:8 27.4536 
2 *40:8 *133:A 23 
*END

*D_NET *41 0.00233332
*CONN
*I *120:A I *D sky130_fd_sc_hd__xor2_1
*I *118:A I *D sky130_fd_sc_hd__inv_2
*I *153:X O *D sky130_fd_sc_hd__dlygate4sd3_1
*CAP
1 *120:A 2.80909e-05
2 *118:A 0.000313359
3 *153:X 0.000321688
4 *41:10 0.000663138
5 *120:A *50:18 5.56356e-05
6 *41:10 *128:C 5.94125e-05
7 *41:10 *131:B1 0.000144501
8 q[0] *118:A 2.93845e-05
9 *123:A *118:A 4.37033e-05
10 *143:CLK *118:A 0
11 *15:6 *118:A 0.000119467
12 *33:18 *41:10 0.000100069
13 *36:12 *118:A 9.54216e-05
14 *36:12 *41:10 0.000174025
15 *37:25 *118:A 0
16 *37:42 *41:10 0
17 *39:40 *118:A 0.000185428
*RES
1 *153:X *41:10 45.3536 
2 *41:10 *118:A 44.9393 
3 *41:10 *120:A 38.6214 
*END

*D_NET *42 0.00146939
*CONN
*I *120:B I *D sky130_fd_sc_hd__xor2_1
*I *154:X O *D sky130_fd_sc_hd__dlygate4sd3_1
*CAP
1 *120:B 0.000476104
2 *154:X 4.05112e-05
3 *42:8 0.000516616
4 *120:B *50:18 0.000162818
5 *42:8 *50:38 8.62876e-05
6 *42:8 *51:10 8.50457e-05
7 *142:D *120:B 0.00010201
*RES
1 *154:X *42:8 39.2014 
2 *42:8 *120:B 45.1879 
*END

*D_NET *43 0.000674334
*CONN
*I *127:A I *D sky130_fd_sc_hd__xnor2_1
*I *155:X O *D sky130_fd_sc_hd__dlygate4sd3_1
*CAP
1 *127:A 0
2 *155:X 0.000287928
3 *43:6 0.000287928
4 *127:B *43:6 9.84794e-05
*RES
1 *155:X *43:6 28.3857 
2 *43:6 *127:A 23 
*END

*D_NET *44 0.00195796
*CONN
*I *131:B1 I *D sky130_fd_sc_hd__a21oi_1
*I *156:X O *D sky130_fd_sc_hd__dlygate4sd3_1
*CAP
1 *131:B1 0.000429887
2 *156:X 9.99407e-05
3 *44:8 0.000529828
4 *131:B1 *121:B 5.40876e-05
5 *131:B1 *153:A 9.7231e-05
6 *131:B1 *157:A 0.000139357
7 *44:8 *121:B 6.11038e-05
8 *148:RESET_B *44:8 0
9 *161:A *44:8 3.17098e-05
10 *33:18 *131:B1 0.000146902
11 *35:18 *131:B1 0.00022341
12 *41:10 *131:B1 0.000144501
*RES
1 *156:X *44:8 39.9057 
2 *44:8 *131:B1 48.6471 
*END

*D_NET *45 0.00198382
*CONN
*I *122:B1 I *D sky130_fd_sc_hd__a21oi_1
*I *157:X O *D sky130_fd_sc_hd__dlygate4sd3_1
*CAP
1 *122:B1 0.000358977
2 *157:X 0.000173764
3 *45:8 0.000532742
4 *122:B1 *122:A1 2.84809e-05
5 *122:B1 *49:10 0.000100982
6 *122:B1 *49:38 9.02657e-05
7 *142:RESET_B *122:B1 0.000350063
8 *148:RESET_B *122:B1 0.000348548
*RES
1 *157:X *45:8 40.0507 
2 *45:8 *122:B1 48.7093 
*END

*D_NET *46 0.00174293
*CONN
*I *123:B I *D sky130_fd_sc_hd__nor2_1
*I *158:X O *D sky130_fd_sc_hd__dlygate4sd3_1
*CAP
1 *123:B 0
2 *158:X 0.000446477
3 *46:10 0.000446477
4 *46:10 *49:8 5.73288e-05
5 *46:10 *51:18 0.000169187
6 *46:10 *52:8 0
7 *13:10 *46:10 0
8 *37:42 *46:10 0.000226922
9 *39:10 *46:10 0.000385097
10 *39:12 *46:10 1.14452e-05
*RES
1 *158:X *46:10 48.8129 
2 *46:10 *123:B 38 
*END

*D_NET *47 0.0019374
*CONN
*I *129:B2 I *D sky130_fd_sc_hd__o2bb2a_1
*I *159:X O *D sky130_fd_sc_hd__dlygate4sd3_1
*CAP
1 *129:B2 0.000141388
2 *159:X 0.000158059
3 *47:8 0.000299446
4 *47:8 *155:A 1.01436e-05
5 *47:8 *53:19 0.000395494
6 *138:A *47:8 0.000336081
7 *27:20 *129:B2 0.000346297
8 *29:14 *129:B2 9.41704e-05
9 *29:33 *129:B2 8.849e-05
10 *29:35 *129:B2 6.17437e-06
11 *39:10 *47:8 6.16531e-05
*RES
1 *159:X *47:8 43.4271 
2 *47:8 *129:B2 41.9564 
*END

*D_NET *48 0.000825782
*CONN
*I *125:A I *D sky130_fd_sc_hd__xor2_1
*I *160:X O *D sky130_fd_sc_hd__dlygate4sd3_1
*CAP
1 *125:A 0.000230895
2 *160:X 6.02756e-05
3 *48:8 0.00029117
4 *145:RESET_B *48:8 5.56306e-05
5 *25:12 *125:A 5.29672e-05
6 *29:80 *125:A 9.91798e-05
7 *29:80 *48:8 3.5664e-05
*RES
1 *160:X *48:8 39.5536 
2 *48:8 *125:A 42.4536 
*END

*D_NET *49 0.00492489
*CONN
*I *121:A I *D sky130_fd_sc_hd__and3_2
*I *153:A I *D sky130_fd_sc_hd__dlygate4sd3_1
*I *162:A I *D sky130_fd_sc_hd__buf_2
*I *122:A1 I *D sky130_fd_sc_hd__a21oi_1
*I *141:Q O *D sky130_fd_sc_hd__dfrtp_1
*CAP
1 *121:A 0
2 *153:A 0.000174667
3 *162:A 0.000445147
4 *122:A1 9.33965e-05
5 *141:Q 0.000340001
6 *49:38 0.000366576
7 *49:10 0.000734677
8 *49:8 0.000728044
9 *122:A1 *122:A2 2.47304e-05
10 *153:A *157:A 9.67842e-05
11 *162:A *51:10 7.80505e-05
12 *49:8 *154:A 4.05745e-05
13 *49:8 *51:18 7.48732e-05
14 *49:38 *121:B 4.67958e-05
15 *49:38 *157:A 9.84851e-05
16 q[1] *49:10 0.000243316
17 q[1] *49:38 6.27951e-05
18 *122:B1 *122:A1 2.84809e-05
19 *122:B1 *49:10 0.000100982
20 *122:B1 *49:38 9.02657e-05
21 *131:B1 *153:A 9.7231e-05
22 *142:RESET_B *122:A1 0.000138718
23 *142:RESET_B *49:10 0.000219639
24 *143:RESET_B *162:A 0.000114843
25 *148:RESET_B *49:38 0
26 *158:A *49:8 0.000137651
27 *15:6 *162:A 9.75313e-05
28 *30:10 *122:A1 5.56203e-05
29 *30:10 *49:10 8.2166e-05
30 *37:42 *49:8 5.55172e-05
31 *46:10 *49:8 5.73288e-05
*RES
1 *141:Q *49:8 44.3386 
2 *49:8 *49:10 5.77929 
3 *49:10 *122:A1 40.61 
4 *49:10 *162:A 46.7621 
5 *49:8 *49:38 19.5364 
6 *49:38 *153:A 26.5007 
7 *49:38 *121:A 23 
*END

*D_NET *50 0.0053545
*CONN
*I *121:B I *D sky130_fd_sc_hd__and3_2
*I *154:A I *D sky130_fd_sc_hd__dlygate4sd3_1
*I *122:A2 I *D sky130_fd_sc_hd__a21oi_1
*I *163:A I *D sky130_fd_sc_hd__buf_2
*I *142:Q O *D sky130_fd_sc_hd__dfrtp_1
*CAP
1 *121:B 0.000240486
2 *154:A 0.000161498
3 *122:A2 0.000284976
4 *163:A 0
5 *142:Q 0.000305141
6 *50:38 0.000497002
7 *50:25 0.000379995
8 *50:18 0.000405991
9 *50:6 0.000711132
10 *121:B *157:A 2.72789e-05
11 *121:B *51:10 2.4867e-05
12 *121:B *51:25 3.76854e-05
13 *122:A2 *51:10 6.90686e-05
14 *50:18 *51:10 0
15 *50:38 *51:10 5.39196e-05
16 q[1] *121:B 1.09886e-05
17 q[1] *50:38 1.12487e-05
18 *120:A *50:18 5.56356e-05
19 *120:B *50:18 0.000162818
20 *122:A1 *122:A2 2.47304e-05
21 *131:B1 *121:B 5.40876e-05
22 *140:A *122:A2 0.00010018
23 *142:D *50:18 0.00010201
24 *158:A *154:A 5.3304e-05
25 *5:8 *50:6 2.43944e-05
26 *5:8 *50:18 0.000703191
27 *22:6 *122:A2 5.41385e-05
28 *30:10 *122:A2 0.000371881
29 *30:10 *50:38 0.000192087
30 *37:12 *122:A2 0
31 *37:42 *50:18 0
32 *42:8 *50:38 8.62876e-05
33 *44:8 *121:B 6.11038e-05
34 *49:8 *154:A 4.05745e-05
35 *49:38 *121:B 4.67958e-05
*RES
1 *142:Q *50:6 27.4329 
2 *50:6 *50:18 41.165 
3 *50:18 *163:A 23 
4 *50:6 *50:25 15 
5 *50:25 *122:A2 45.2293 
6 *50:25 *50:38 2.96214 
7 *50:38 *154:A 40.5271 
8 *50:38 *121:B 42.7643 
*END

*D_NET *51 0.00494859
*CONN
*I *157:A I *D sky130_fd_sc_hd__dlygate4sd3_1
*I *121:C I *D sky130_fd_sc_hd__and3_2
*I *164:A I *D sky130_fd_sc_hd__buf_2
*I *143:Q O *D sky130_fd_sc_hd__dfrtp_1
*CAP
1 *157:A 0.000101562
2 *121:C 0
3 *164:A 0
4 *143:Q 0.000689134
5 *51:25 0.000170129
6 *51:18 0.000995068
7 *51:10 0.00175277
8 *121:B *157:A 2.72789e-05
9 *121:B *51:10 2.4867e-05
10 *121:B *51:25 3.76854e-05
11 *122:A2 *51:10 6.90686e-05
12 *131:B1 *157:A 0.000139357
13 *141:RESET_B *51:18 0.000263165
14 *153:A *157:A 9.67842e-05
15 *158:A *51:18 3.7122e-06
16 *162:A *51:10 7.80505e-05
17 *25:12 *51:18 6.17437e-06
18 *37:25 *51:10 0
19 *37:42 *51:10 0
20 *37:42 *51:18 1.22715e-05
21 *42:8 *51:10 8.50457e-05