*SPEF "ieee 1481-1999"
*DESIGN "counter"
*DATE "14:19:07 Sunday December 14, 2025"
*VENDOR "The OpenROAD Project"
*PROGRAM "OpenROAD"
*VERSION "edf00dff99f6c40d67a30c0e22a8191c5d2ed9d6"
*DESIGN_FLOW "NAME_SCOPE LOCAL" "PIN_CAP NONE"
*DIVIDER /
*DELIMITER :
*BUS_DELIMITER []
*T_UNIT 1 NS
*C_UNIT 1 PF
*R_UNIT 1 OHM
*L_UNIT 1 HENRY

*NAME_MAP
*3 clk
*4 q[0]
*5 q[1]
*6 q[2]
*7 q[3]
*8 q[4]
*9 q[5]
*10 q[6]
*11 q[7]
*12 rst
*13 _00_
*14 _01_
*15 _02_
*16 _03_
*17 _04_
*18 _05_
*19 _06_
*20 _07_
*21 _08_
*22 _09_
*23 _10_
*24 _11_
*25 _12_
*26 _13_
*27 _14_
*28 _15_
*29 _16_
*30 _17_
*31 _18_
*32 _19_
*33 _20_
*34 _21_
*35 _22_
*36 clknet_0_clk
*37 clknet_1_0__leaf_clk
*38 clknet_1_1__leaf_clk
*39 net1
*40 net10
*41 net11
*42 net12
*43 net13
*44 net14
*45 net15
*46 net16
*47 net17
*48 net18
*49 net2
*50 net3
*51 net4
*52 net5
*53 net6
*54 net7
*55 net8
*56 net9
*57 FILLER_0_15
*58 FILLER_0_23
*59 FILLER_0_3
*60 FILLER_1_18
*61 FILLER_1_3
*62 FILLER_1_55
*63 FILLER_2_29
*64 FILLER_2_3
*65 FILLER_3_3
*66 FILLER_3_54
*67 FILLER_4_48
*68 FILLER_4_7
*69 FILLER_5_12
*70 FILLER_5_3
*71 FILLER_5_41
*72 FILLER_6_27
*73 FILLER_6_29
*74 FILLER_6_55
*75 FILLER_7_35
*76 FILLER_8_11
*77 FILLER_8_25
*78 FILLER_8_3
*79 FILLER_8_32
*80 FILLER_8_43
*81 FILLER_8_56
*82 FILLER_9_15
*83 FILLER_9_27
*84 FILLER_9_3
*85 FILLER_9_53
*86 PHY_EDGE_ROW_0_Left_10
*87 PHY_EDGE_ROW_0_Right_0
*88 PHY_EDGE_ROW_1_Left_11
*89 PHY_EDGE_ROW_1_Right_1
*90 PHY_EDGE_ROW_2_Left_12
*91 PHY_EDGE_ROW_2_Right_2
*92 PHY_EDGE_ROW_3_Left_13
*93 PHY_EDGE_ROW_3_Right_3
*94 PHY_EDGE_ROW_4_Left_14
*95 PHY_EDGE_ROW_4_Right_4
*96 PHY_EDGE_ROW_5_Left_15
*97 PHY_EDGE_ROW_5_Right_5
*98 PHY_EDGE_ROW_6_Left_16
*99 PHY_EDGE_ROW_6_Right_6
*100 PHY_EDGE_ROW_7_Left_17
*101 PHY_EDGE_ROW_7_Right_7
*102 PHY_EDGE_ROW_8_Left_18
*103 PHY_EDGE_ROW_8_Right_8
*104 PHY_EDGE_ROW_9_Left_19
*105 PHY_EDGE_ROW_9_Right_9
*106 TAP_TAPCELL_ROW_0_20
*107 TAP_TAPCELL_ROW_0_21
*108 TAP_TAPCELL_ROW_1_22
*109 TAP_TAPCELL_ROW_2_23
*110 TAP_TAPCELL_ROW_3_24
*111 TAP_TAPCELL_ROW_4_25
*112 TAP_TAPCELL_ROW_5_26
*113 TAP_TAPCELL_ROW_6_27
*114 TAP_TAPCELL_ROW_7_28
*115 TAP_TAPCELL_ROW_8_29
*116 TAP_TAPCELL_ROW_9_30
*117 TAP_TAPCELL_ROW_9_31
*118 _23_
*119 _24_
*120 _25_
*121 _26_
*122 _27_
*123 _28_
*124 _29_
*125 _30_
*126 _31_
*127 _32_
*128 _33_
*129 _34_
*130 _35_
*131 _36_
*132 _37_
*133 _38_
*134 _39_
*135 _40_
*136 _41_
*137 _42_
*138 _43_
*139 _44_
*140 _45_
*141 _46_
*142 _47_
*143 _48_
*144 _49_
*145 _50_
*146 _51_
*147 _52_
*148 _53_
*149 clkbuf_0_clk
*150 clkbuf_1_0__f_clk
*151 clkbuf_1_1__f_clk
*152 hold1
*153 hold2
*154 hold3
*155 hold4
*156 hold5
*157 hold6
*158 hold7
*159 hold8
*160 hold9
*161 input1
*162 output2
*163 output3
*164 output4
*165 output5
*166 output6
*167 output7
*168 output8
*169 output9

*PORTS
clk I
q[0] O
q[1] O
q[2] O
q[3] O
q[4] O
q[5] O
q[6] O
q[7] O
rst I

*D_NET *3 0.00186421
*CONN
*P clk I
*I *149:A I *D sky130_fd_sc_hd__clkbuf_16
*CAP
1 clk 0.000789668
2 *149:A 0.000789668
3 *149:A q[2] 0
4 *149:A q[3] 3.14094e-05
5 *149:A q[5] 9.50048e-05
6 *149:A *129:B1 0.000101789
7 *149:A *29:51 1.1561e-05
8 *149:A *33:24 4.51111e-05
*RES
1 clk *149:A 7.17057 
*END

*D_NET *4 0.00116004
*CONN
*P q[0] O
*I *162:X O *D sky130_fd_sc_hd__buf_2
*CAP
1 q[0] 0.000483891
2 *162:X 0.000483891
3 q[0] *118:A 2.75229e-05
4 q[0] *143:D 1.22572e-05
5 q[0] *150:A 0.000140912
6 q[0] *37:12 0
7 q[0] *39:16 1.15688e-05
*RES
1 *162:X q[0] 12.225 
*END

*D_NET *5 0.00340283
*CONN
*P q[1] O
*I *163:X O *D sky130_fd_sc_hd__buf_2
*CAP
1 q[1] 0.000991564
2 *163:X 0.000991564
3 q[1] q[2] 0.000138636
4 q[1] *121:B 1.03833e-05
5 q[1] *158:A 0.00022372
6 q[1] *161:A 0.000141625
7 q[1] *163:A 0.000614747
8 q[1] *49:10 0.000203002
9 q[1] *49:38 5.28227e-05
10 q[1] *50:6 2.39856e-05
11 q[1] *50:38 1.07797e-05
*RES
1 *163:X q[1] 16.4446 
*END

*D_NET *6 0.00377408
*CONN
*P q[2] O
*I *164:X O *D sky130_fd_sc_hd__buf_2
*CAP
1 q[2] 0.0017563
2 *164:X 0.0017563
3 q[2] *123:A 1.09016e-05
4 q[2] *144:CLK 6.36578e-05
5 q[2] *145:RESET_B 4.82863e-05
6 q[2] *161:A 0
7 q[2] *39:48 0
8 q[1] q[2] 0.000138636
9 *149:A q[2] 0
*RES
1 *164:X q[2] 9.15743 
*END

*D_NET *7 0.000710009
*CONN
*P q[3] O
*I *165:X O *D sky130_fd_sc_hd__buf_2
*CAP
1 q[3] 0.0003393
2 *165:X 0.0003393
3 *149:A q[3] 3.14094e-05
*RES
1 *165:X q[3] 7.6893 
*END

*D_NET *8 0.000658473
*CONN
*P q[4] O
*I *166:X O *D sky130_fd_sc_hd__buf_2
*CAP
1 q[4] 0.000313532
2 *166:X 0.000313532
3 q[4] q[5] 3.14094e-05
*RES
1 *166:X q[4] 7.1793 
*END

*D_NET *9 0.000464562
*CONN
*P q[5] O
*I *167:X O *D sky130_fd_sc_hd__buf_2
*CAP
1 q[5] 0.000169074
2 *167:X 0.000169074
3 q[4] q[5] 3.14094e-05
4 *149:A q[5] 9.50048e-05
*RES
1 *167:X q[5] 4.90503 
*END

*D_NET *10 0.00158367
*CONN
*P q[6] O
*I *168:X O *D sky130_fd_sc_hd__buf_2
*CAP
1 q[6] 0.000460401
2 *168:X 0.000460401
3 q[6] q[7] 0.000105706
4 q[6] *147:RESET_B 3.59272e-05
5 q[6] *148:RESET_B 0.000155921
6 q[6] *161:A 0.000121035
7 q[6] *168:A 0.000197241
8 q[6] *56:10 4.70343e-05
*RES
1 *168:X q[6] 11.6498 
*END

*D_NET *11 0.00117285
*CONN
*P q[7] O
*I *169:X O *D sky130_fd_sc_hd__buf_2
*CAP
1 q[7] 0.000533573
2 *169:X 0.000533573
3 q[7] *161:A 0
4 q[7] *168:A 0
5 q[6] q[7] 0.000105706
*RES
1 *169:X q[7] 7.0177 
*END

*D_NET *12 0.00117608
*CONN
*P rst I
*I *161:A I *D sky130_fd_sc_hd__clkbuf_4
*CAP
1 rst 0.000424511
2 *161:A 0.000424511
3 *161:A *131:B1 3.08148e-05
4 *161:A *147:RESET_B 0
5 *161:A *148:RESET_B 0
6 *161:A *29:14 3.35815e-05
7 q[1] *161:A 0.000141625
8 q[2] *161:A 0
9 q[6] *161:A 0.000121035
10 q[7] *161:A 0
*RES
1 rst *161:A 6.70443 
*END

*D_NET *13 0.000806141
*CONN
*I *141:D I *D sky130_fd_sc_hd__dfrtp_1
*I *118:Y O *D sky130_fd_sc_hd__inv_2
*CAP
1 *141:D 0.000179599
2 *118:Y 0.000179599
3 *141:D *123:A 8.8266e-05
4 *141:D *123:B 0
5 *141:D *141:RESET_B 0.000293925
6 *141:D *52:8 6.47516e-05
*RES
1 *118:Y *141:D 11.415 
*END

*D_NET *14 0.000261954
*CONN
*I *142:D I *D sky130_fd_sc_hd__dfrtp_1
*I *120:X O *D sky130_fd_sc_hd__xor2_1
*CAP
1 *142:D 3.70507e-05
2 *120:X 3.70507e-05
3 *142:D *120:B 9.39263e-05
4 *142:D *163:A 9.39263e-05
*RES
1 *120:X *142:D 4.685 
*END

*D_NET *15 0.000875797
*CONN
*I *143:D I *D sky130_fd_sc_hd__dfrtp_1
*I *123:Y O *D sky130_fd_sc_hd__nor2_1
*CAP
1 *143:D 0.000158144
2 *123:Y 0.000158144
3 *143:D *118:A 0.000111901
4 *143:D *143:RESET_B 0.000345642
5 *143:D *162:A 8.97099e-05
6 q[0] *143:D 1.22572e-05
*RES
1 *123:Y *143:D 7.445 
*END

*D_NET *16 0.000346066
*CONN
*I *144:D I *D sky130_fd_sc_hd__dfrtp_1
*I *125:X O *D sky130_fd_sc_hd__xor2_1
*CAP
1 *144:D 0.000137363
2 *125:X 0.000137363
3 *144:D *144:CLK 7.13405e-05
4 *144:D *39:48 0
*RES
1 *125:X *144:D 9.13875 
*END

*D_NET *17 0.000192052
*CONN
*I *145:D I *D sky130_fd_sc_hd__dfrtp_1
*I *127:Y O *D sky130_fd_sc_hd__xnor2_1
*CAP
1 *145:D 4.74729e-05
2 *127:Y 4.74729e-05
3 *145:D *127:B 9.71067e-05
4 *145:D *145:RESET_B 0
*RES
1 *127:Y *145:D 8.325 
*END

*D_NET *18 0.000437908
*CONN
*I *146:D I *D sky130_fd_sc_hd__dfrtp_1
*I *129:X O *D sky130_fd_sc_hd__o2bb2a_1
*CAP
1 *146:D 0.000143136
2 *129:X 0.000143136
3 *146:D *124:B 5.30673e-05
4 *146:D *127:B 9.47454e-05
5 *146:D *145:RESET_B 0
6 *146:D *147:RESET_B 3.82323e-06
*RES
1 *129:X *146:D 9.465 
*END

*D_NET *19 0.00129657
*CONN
*I *147:D I *D sky130_fd_sc_hd__dfrtp_1
*I *132:Y O *D sky130_fd_sc_hd__nor2_1
*CAP
1 *147:D 0.000304908
2 *132:Y 0.000304908
3 *147:D *130:A 4.99619e-05
4 *147:D *132:A 7.29833e-05
5 *147:D *168:A 0
6 *147:D *34:16 0.00025858
7 *147:D *38:10 9.14049e-05
8 *147:D *38:16 0.000213826
*RES
1 *132:Y *147:D 13.41 
*END

*D_NET *20 0.000563818
*CONN
*I *148:D I *D sky130_fd_sc_hd__dfrtp_1
*I *133:X O *D sky130_fd_sc_hd__xor2_1
*CAP
1 *148:D 0.000181898
2 *133:X 0.000181898
3 *148:D *132:B 4.22574e-05
4 *148:D *148:CLK 8.8786e-05
5 *148:D *151:A 0
6 *148:D *38:10 6.89789e-05
*RES
1 *133:X *148:D 10.335 
*END

*D_NET *21 0.00124325
*CONN
*I *141:RESET_B I *D sky130_fd_sc_hd__dfrtp_1
*I *119:Y O *D sky130_fd_sc_hd__inv_2
*CAP
1 *141:RESET_B 0.000144867
2 *119:Y 0.000144867
3 *141:RESET_B *123:A 0.000340084
4 *141:RESET_B *164:A 0.00023142
5 *141:RESET_B *37:42 6.98363e-05
6 *141:RESET_B *52:8 1.82476e-05
7 *141:D *141:RESET_B 0.000293925
*RES
1 *119:Y *141:RESET_B 11.6525 
*END

*D_NET *22 0.00228031
*CONN
*I *142:RESET_B I *D sky130_fd_sc_hd__dfrtp_1
*I *134:Y O *D sky130_fd_sc_hd__inv_2
*CAP
1 *142:RESET_B 0.000479564
2 *134:Y 0.000479564
3 *142:RESET_B *122:A1 0.000116158
4 *142:RESET_B *122:A2 5.05521e-05
5 *142:RESET_B *122:B1 0.000292368
6 *142:RESET_B *134:A 3.45588e-05
7 *142:RESET_B *140:A 0.00032157
8 *142:RESET_B *158:A 0.000122325
9 *142:RESET_B *37:12 0.000200288
10 *142:RESET_B *49:10 0.000183359
*RES
1 *134:Y *142:RESET_B 17.75 
*END

*D_NET *23 0.00115212
*CONN
*I *143:RESET_B I *D sky130_fd_sc_hd__dfrtp_1
*I *135:Y O *D sky130_fd_sc_hd__inv_2
*CAP
1 *143:RESET_B 0.000351601
2 *135:Y 0.000351601
3 *143:RESET_B *162:A 0.000103282
4 *143:D *143:RESET_B 0.000345642
*RES
1 *135:Y *143:RESET_B 6.9475 
*END

*D_NET *24 0.000250592
*CONN
*I *144:RESET_B I *D sky130_fd_sc_hd__dfrtp_1
*I *136:Y O *D sky130_fd_sc_hd__inv_2
*CAP
1 *144:RESET_B 0.000106773
2 *136:Y 0.000106773
3 *144:RESET_B *123:A 0
4 *144:RESET_B *39:42 3.00381e-05
5 *144:RESET_B *39:48 7.00889e-06
*RES
1 *136:Y *144:RESET_B 7.175 
*END

*D_NET *25 0.00184168
*CONN
*I *145:RESET_B I *D sky130_fd_sc_hd__dfrtp_1
*I *137:Y O *D sky130_fd_sc_hd__inv_2
*CAP
1 *145:RESET_B 0.000624251
2 *137:Y 0.000624251
3 *145:RESET_B *123:A 0.000176893
4 *145:RESET_B *124:A 0
5 *145:RESET_B *125:A 0.000100654
6 *145:RESET_B *125:B 4.99619e-05
7 *145:RESET_B *127:B 0
8 *145:RESET_B *130:B 0
9 *145:RESET_B *139:A 0
10 *145:RESET_B *146:RESET_B 0
11 *145:RESET_B *147:RESET_B 0
12 *145:RESET_B *164:A 5.83121e-06
13 *145:RESET_B *29:51 0.000211547
14 *145:RESET_B *33:24 0
15 *145:RESET_B *39:48 0
16 q[2] *145:RESET_B 4.82863e-05
17 *145:D *145:RESET_B 0
18 *146:D *145:RESET_B 0
*RES
1 *137:Y *145:RESET_B 17.015 
*END

*D_NET *26 0.00114069
*CONN
*I *146:RESET_B I *D sky130_fd_sc_hd__dfrtp_1
*I *138:Y O *D sky130_fd_sc_hd__inv_2
*CAP
1 *146:RESET_B 0.000373689
2 *138:Y 0.000373689
3 *146:RESET_B *130:B 9.78082e-05
4 *146:RESET_B *138:A 4.66826e-05
5 *146:RESET_B *155:A 0.000147556
6 *146:RESET_B *167:A 4.4133e-05
7 *146:RESET_B *38:18 2.40101e-05
8 *146:RESET_B *53:19 3.31204e-05
9 *145:RESET_B *146:RESET_B 0
*RES
1 *138:Y *146:RESET_B 12.1025 
*END

*D_NET *27 0.00367432
*CONN
*I *147:RESET_B I *D sky130_fd_sc_hd__dfrtp_1
*I *139:Y O *D sky130_fd_sc_hd__inv_2
*CAP
1 *147:RESET_B 0.00112457
2 *139:Y 0.00112457
3 *147:RESET_B *124:A 7.00225e-05
4 *147:RESET_B *124:B 6.91302e-05
5 *147:RESET_B *129:B2 0.00030358
6 *147:RESET_B *148:RESET_B 0
7 *147:RESET_B *165:A 4.05674e-06
8 *147:RESET_B *168:A 5.4003e-05
9 *147:RESET_B *29:14 0.000583518
10 *147:RESET_B *29:35 5.46871e-05
11 *147:RESET_B *36:8 0.000232041
12 *147:RESET_B *52:18 1.4389e-05
13 q[6] *147:RESET_B 3.59272e-05
14 *145:RESET_B *147:RESET_B 0
15 *146:D *147:RESET_B 3.82323e-06
16 *161:A *147:RESET_B 0
*RES
1 *139:Y *147:RESET_B 27.69 
*END

*D_NET *28 0.00212509
*CONN
*I *148:RESET_B I *D sky130_fd_sc_hd__dfrtp_1
*I *140:Y O *D sky130_fd_sc_hd__inv_2
*CAP
1 *148:RESET_B 0.000763393
2 *140:Y 0.000763393
3 *148:RESET_B *122:B1 0.000326212
4 *148:RESET_B *131:B1 0
5 *148:RESET_B *156:A 0.000116171
6 *148:RESET_B *49:38 0
7 q[6] *148:RESET_B 0.000155921
8 *147:RESET_B *148:RESET_B 0
9 *161:A *148:RESET_B 0
*RES
1 *140:Y *148:RESET_B 20.4725 
*END

*D_NET *29 0.00732283
*CONN
*I *130:B I *D sky130_fd_sc_hd__and3_1
*I *126:C I *D sky130_fd_sc_hd__and3_1
*I *125:B I *D sky130_fd_sc_hd__xor2_1
*I *123:A I *D sky130_fd_sc_hd__nor2_1
*I *129:A1_N I *D sky130_fd_sc_hd__o2bb2a_1
*I *124:B I *D sky130_fd_sc_hd__nand2_1
*I *131:A1 I *D sky130_fd_sc_hd__a21oi_1
*I *121:X O *D sky130_fd_sc_hd__and3_2
*CAP
1 *130:B 0.000292609
2 *126:C 0
3 *125:B 0.000154779
4 *123:A 0.000311672
5 *129:A1_N 0
6 *124:B 4.457e-05
7 *131:A1 5.56948e-05
8 *121:X 0.000234049
9 *29:70 0.000262969
10 *29:51 0.000517353
11 *29:35 8.8742e-05
12 *29:33 0.000225735
13 *29:25 0.000388867
14 *29:14 0.000301929
15 *123:A *118:A 3.95724e-05
16 *123:A *144:CLK 0.000116853
17 *123:A *39:40 7.59904e-05
18 *123:A *39:42 1.16578e-05
19 *123:A *39:48 0
20 *123:A *52:8 0
21 *123:A *52:12 0
22 *124:B *129:A2_N 6.25794e-06
23 *125:B *125:A 0.000129618
24 *125:B *139:A 7.12059e-05
25 *125:B *39:48 1.71013e-05
26 *125:B *52:16 2.3311e-05
27 *130:B *33:24 2.07184e-05
28 *130:B *38:18 0.000145689
29 *130:B *53:19 0.000202095
30 *131:A1 *33:24 0.000182342
31 *131:A1 *39:10 2.96297e-05
32 *131:A1 *53:19 0.000112123
33 *29:14 *129:B2 8.23457e-05
34 *29:14 *130:C 3.23284e-05
35 *29:14 *39:8 0.000530711
36 *29:25 *33:24 4.44927e-05
37 *29:25 *53:19 5.23362e-05
38 *29:33 *129:A2_N 0.000183713
39 *29:33 *129:B2 8.38635e-05
40 *29:33 *130:C 3.57349e-05
41 *29:35 *129:A2_N 9.27326e-05
42 *29:35 *129:B2 5.83121e-06
43 *29:51 *129:B1 0.000111459
44 *29:51 *33:24 0
45 *29:70 *52:16 0.000223138
46 q[2] *123:A 1.09016e-05
47 *141:D *123:A 8.8266e-05
48 *141:RESET_B *123:A 0.000340084
49 *144:RESET_B *123:A 0
50 *145:RESET_B *123:A 0.000176893
51 *145:RESET_B *125:B 4.99619e-05
52 *145:RESET_B *130:B 0
53 *145:RESET_B *29:51 0.000211547
54 *146:D *124:B 5.30673e-05
55 *146:RESET_B *130:B 9.78082e-05
56 *147:RESET_B *124:B 6.91302e-05
57 *147:RESET_B *29:14 0.000583518
58 *147:RESET_B *29:35 5.46871e-05
59 *149:A *29:51 1.1561e-05
60 *161:A *29:14 3.35815e-05
*RES
1 *121:X *29:14 15.295 
2 *29:14 *131:A1 5.745 
3 *29:14 *29:25 0.615 
4 *29:25 *29:33 4.64 
5 *29:33 *29:35 1.49625 
6 *29:35 *124:B 3.07375 
7 *29:35 *129:A1_N 1.6 
8 *29:33 *29:51 4.655 
9 *29:51 *123:A 11.7 
10 *29:51 *29:70 4.055 
11 *29:70 *125:B 9.2 
12 *29:70 *126:C 1.6 
13 *29:25 *130:B 8.52 
*END

*D_NET *30 0.00174122
*CONN
*I *158:A I *D sky130_fd_sc_hd__dlygate4sd3_1
*I *122:Y O *D sky130_fd_sc_hd__a21oi_1
*CAP
1 *158:A 0.000305216
2 *122:Y 0.000305216
3 *158:A *122:A1 5.20968e-05
4 *158:A *122:A2 0.000310622
5 *158:A *140:A 1.33293e-05
6 *158:A *154:A 4.66108e-05
7 *158:A *164:A 3.64998e-06
8 *158:A *49:8 0.000120655
9 *158:A *49:10 7.71211e-05
10 *158:A *50:38 0.000160658
11 q[1] *158:A 0.00022372
12 *142:RESET_B *158:A 0.000122325
*RES
1 *122:Y *158:A 15.285 
*END

*D_NET *31 0.00103944
*CONN
*I *127:B I *D sky130_fd_sc_hd__xnor2_1
*I *124:Y O *D sky130_fd_sc_hd__nand2_1
*CAP
1 *127:B 0.00033562
2 *124:Y 0.00033562
3 *127:B *127:A 8.65905e-05
4 *127:B *145:CLK 8.97564e-05
5 *145:D *127:B 9.71067e-05
6 *145:RESET_B *127:B 0
7 *146:D *127:B 9.47454e-05
*RES
1 *124:Y *127:B 13.71 
*END

*D_NET *32 0.000784421
*CONN
*I *129:B1 I *D sky130_fd_sc_hd__o2bb2a_1
*I *126:X O *D sky130_fd_sc_hd__and3_1
*CAP
1 *129:B1 0.000186564
2 *126:X 0.000186564
3 *129:B1 *126:B 0.000198046
4 *149:A *129:B1 0.000101789
5 *29:51 *129:B1 0.000111459
*RES
1 *126:X *129:B1 10.41 
*END

*D_NET *33 0.00300188
*CONN
*I *131:A2 I *D sky130_fd_sc_hd__a21oi_1
*I *130:C I *D sky130_fd_sc_hd__and3_1
*I *129:A2_N I *D sky130_fd_sc_hd__o2bb2a_1
*I *128:X O *D sky130_fd_sc_hd__and3_1
*CAP
1 *131:A2 0
2 *130:C 0.000287512
3 *129:A2_N 0.000240676
4 *128:X 0.000186555
5 *33:24 0.000645651
6 *33:18 0.000304018
7 *130:C *128:C 7.06865e-05
8 *130:C *130:A 1.70906e-05
9 *130:C *132:B 6.88421e-05
10 *130:C *159:A 8.53113e-06
11 *130:C *39:8 8.82096e-05
12 *33:18 *126:B 3.07153e-05
13 *33:18 *128:A 0.000123149
14 *33:18 *128:B 9.27255e-06
15 *33:18 *128:C 5.28255e-05
16 *33:18 *131:B1 0.000130897
17 *33:18 *41:10 8.52883e-05
18 *33:24 *52:12 8.53113e-06
19 *124:B *129:A2_N 6.25794e-06
20 *130:B *33:24 2.07184e-05
21 *131:A1 *33:24 0.000182342
22 *145:RESET_B *33:24 0
23 *149:A *33:24 4.51111e-05
24 *29:14 *130:C 3.23284e-05
25 *29:25 *33:24 4.44927e-05
26 *29:33 *129:A2_N 0.000183713
27 *29:33 *130:C 3.57349e-05
28 *29:35 *129:A2_N 9.27326e-05
29 *29:51 *33:24 0
*RES
1 *128:X *33:18 6.46 
2 *33:18 *33:24 6.91 
3 *33:24 *129:A2_N 4.81 
4 *33:24 *130:C 9.5 
5 *33:18 *131:A2 1.6 
*END

*D_NET *34 0.00143854
*CONN
*I *133:B I *D sky130_fd_sc_hd__xor2_1
*I *132:A I *D sky130_fd_sc_hd__nor2_1
*I *130:X O *D sky130_fd_sc_hd__and3_1
*CAP
1 *133:B 0
2 *132:A 0.000106127
3 *130:X 0.000365397
4 *34:16 0.000471524
5 *132:A *133:A 3.50152e-06
6 *34:16 *130:A 4.57301e-06
7 *34:16 *168:A 0
8 *34:16 *38:10 5.63043e-05
9 *34:16 *38:16 7.08493e-05
10 *34:16 *38:18 2.86975e-05
11 *147:D *132:A 7.29833e-05
12 *147:D *34:16 0.00025858
*RES
1 *130:X *34:16 12.005 
2 *34:16 *132:A 3.55 
3 *34:16 *133:B 1.6 
*END

*D_NET *35 0.00184929
*CONN
*I *132:B I *D sky130_fd_sc_hd__nor2_1
*I *131:Y O *D sky130_fd_sc_hd__a21oi_1
*CAP
1 *132:B 0.000524011
2 *131:Y 0.000524011
3 *132:B *128:B 0.000155491
4 *132:B *128:C 0.000158437
5 *132:B *131:B1 0.00019496
6 *132:B *151:A 0
7 *132:B *159:A 0.000181284
8 *130:C *132:B 6.88421e-05
9 *148:D *132:B 4.22574e-05
*RES
1 *131:Y *132:B 18.45 
*END

*D_NET *36 0.00404796
*CONN
*I *151:A I *D sky130_fd_sc_hd__clkbuf_16
*I *150:A I *D sky130_fd_sc_hd__clkbuf_16
*I *149:X O *D sky130_fd_sc_hd__clkbuf_16
*CAP
1 *151:A 0.000357926
2 *150:A 0.00030385
3 *149:X 0.000167707
4 *36:8 0.000829483
5 *150:A *118:A 9.14801e-05
6 *150:A *128:C 0.000131923
7 *150:A *143:CLK 0
8 *150:A *37:12 0
9 *150:A *39:10 0.000626609
10 *150:A *39:12 5.16418e-05
11 *150:A *39:16 0.000162325
12 *150:A *41:10 0.000162524
13 *151:A *128:C 9.33406e-05
14 *151:A *138:A 0.000511064
15 *151:A *159:A 0.000122977
16 *151:A *38:10 0
17 *151:A *39:10 6.21553e-05
18 q[0] *150:A 0.000140912
19 *132:B *151:A 0
20 *147:RESET_B *36:8 0.000232041
21 *148:D *151:A 0
*RES
1 *149:X *36:8 5.775 
2 *36:8 *150:A 13.395 
3 *36:8 *151:A 12.63 
*END

*D_NET *37 0.00407495
*CONN
*I *141:CLK I *D sky130_fd_sc_hd__dfrtp_1
*I *144:CLK I *D sky130_fd_sc_hd__dfrtp_1
*I *142:CLK I *D sky130_fd_sc_hd__dfrtp_1
*I *143:CLK I *D sky130_fd_sc_hd__dfrtp_1
*I *150:X O *D sky130_fd_sc_hd__clkbuf_16
*CAP
1 *141:CLK 3.98918e-05
2 *144:CLK 0.000357888
3 *142:CLK 0
4 *143:CLK 0.000109103
5 *150:X 0.000239939
6 *37:42 0.0011274
7 *37:25 0.000895262
8 *37:12 0.000514679
9 *143:CLK *118:A 0
10 *37:12 *122:A2 0
11 *37:25 *118:A 0
12 *37:25 *51:10 0
13 *37:42 *123:B 0.000208462
14 *37:42 *163:A 0
15 *37:42 *164:A 1.26306e-05
16 *37:42 *41:10 0
17 *37:42 *49:8 4.77153e-05
18 *37:42 *51:10 0
19 q[0] *37:12 0
20 q[2] *144:CLK 6.36578e-05
21 *123:A *144:CLK 0.000116853
22 *141:RESET_B *37:42 6.98363e-05
23 *142:RESET_B *37:12 0.000200288
24 *144:D *144:CLK 7.13405e-05
25 *150:A *143:CLK 0
26 *150:A *37:12 0
*RES
1 *150:X *37:12 7.1325 
2 *37:12 *143:CLK 4.8825 
3 *37:12 *37:25 2.2725 
4 *37:25 *142:CLK 3.6 
5 *37:25 *37:42 11.195 
6 *37:42 *144:CLK 11.915 
7 *37:42 *141:CLK 2.215 
*END

*D_NET *38 0.00354527
*CONN
*I *148:CLK I *D sky130_fd_sc_hd__dfrtp_1
*I *147:CLK I *D sky130_fd_sc_hd__dfrtp_1
*I *146:CLK I *D sky130_fd_sc_hd__dfrtp_1
*I *145:CLK I *D sky130_fd_sc_hd__dfrtp_1
*I *151:X O *D sky130_fd_sc_hd__clkbuf_16
*CAP
1 *148:CLK 5.87791e-05
2 *147:CLK 0
3 *146:CLK 0
4 *145:CLK 0.000111147
5 *151:X 0.000327099
6 *38:18 0.00057146
7 *38:16 0.000591279
8 *38:10 0.000516845
9 *38:16 *130:A 5.4933e-05
10 *38:18 *130:A 0.000111709
11 *38:18 *167:A 0.000274283
12 *38:18 *54:17 4.94378e-05
13 *127:B *145:CLK 8.97564e-05
14 *130:B *38:18 0.000145689
15 *146:RESET_B *38:18 2.40101e-05
16 *147:D *38:10 9.14049e-05
17 *147:D *38:16 0.000213826
18 *148:D *148:CLK 8.8786e-05
19 *148:D *38:10 6.89789e-05
20 *151:A *38:10 0
21 *34:16 *38:10 5.63043e-05
22 *34:16 *38:16 7.08493e-05
23 *34:16 *38:18 2.86975e-05
*RES
1 *151:X *38:10 8.595 
2 *38:10 *38:16 5.54 
3 *38:16 *38:18 9.765 
4 *38:18 *145:CLK 7.49 
5 *38:18 *146:CLK 1.6 
6 *38:16 *147:CLK 1.6 
7 *38:10 *148:CLK 4.755 
*END

*D_NET *39 0.00823987
*CONN
*I *138:A I *D sky130_fd_sc_hd__inv_2
*I *135:A I *D sky130_fd_sc_hd__inv_2
*I *119:A I *D sky130_fd_sc_hd__inv_2
*I *136:A I *D sky130_fd_sc_hd__inv_2
*I *139:A I *D sky130_fd_sc_hd__inv_2
*I *137:A I *D sky130_fd_sc_hd__inv_2
*I *140:A I *D sky130_fd_sc_hd__inv_2
*I *134:A I *D sky130_fd_sc_hd__inv_2
*I *161:X O *D sky130_fd_sc_hd__clkbuf_4
*CAP
1 *138:A 0.000209607
2 *135:A 0
3 *119:A 0
4 *136:A 0
5 *139:A 0.000143397
6 *137:A 0
7 *140:A 0.000518075
8 *134:A 9.14724e-05
9 *161:X 0.000197508
10 *39:48 0.000499794
11 *39:42 0.000433852
12 *39:40 0.000281312
13 *39:16 0.00071116
14 *39:12 0.000331985
15 *39:10 0.000317876
16 *39:8 0.000698475
17 *138:A *129:B2 0.000281167
18 *138:A *155:A 0.000123751
19 *139:A *124:A 9.50342e-06
20 *140:A *122:A2 8.8266e-05
21 *39:10 *123:B 0.000322317
22 *39:10 *128:A 9.82856e-06
23 *39:10 *129:B2 5.16418e-05
24 *39:10 *52:8 0
25 *39:10 *52:12 0
26 *39:10 *53:19 4.31189e-05
27 *39:12 *123:B 9.50342e-06
28 *39:40 *118:A 0.000163199
29 q[0] *39:16 1.15688e-05
30 q[2] *39:48 0
31 *123:A *39:40 7.59904e-05
32 *123:A *39:42 1.16578e-05
33 *123:A *39:48 0
34 *125:B *139:A 7.12059e-05
35 *125:B *39:48 1.71013e-05
36 *130:C *39:8 8.82096e-05
37 *131:A1 *39:10 2.96297e-05
38 *142:RESET_B *134:A 3.45588e-05
39 *142:RESET_B *140:A 0.00032157
40 *144:D *39:48 0
41 *144:RESET_B *39:42 3.00381e-05
42 *144:RESET_B *39:48 7.00889e-06
43 *145:RESET_B *139:A 0
44 *145:RESET_B *39:48 0
45 *146:RESET_B *138:A 4.66826e-05
46 *150:A *39:10 0.000626609
47 *150:A *39:12 5.16418e-05
48 *150:A *39:16 0.000162325
49 *151:A *138:A 0.000511064
50 *151:A *39:10 6.21553e-05
51 *158:A *140:A 1.33293e-05
52 *29:14 *39:8 0.000530711
*RES
1 *161:X *39:8 8.535 
2 *39:8 *39:10 8.265 
3 *39:10 *39:12 0.615 
4 *39:12 *39:16 4.145 
5 *39:16 *134:A 3.1 
6 *39:16 *140:A 10.69 
7 *39:12 *39:40 5.825 
8 *39:40 *39:42 1.485 
9 *39:42 *39:48 7.67 
10 *39:48 *137:A 3.6 
11 *39:48 *139:A 6.045 
12 *39:42 *136:A 1.6 
13 *39:40 *119:A 1.6 
14 *39:10 *135:A 3.6 
15 *39:8 *138:A 10.71 
*END

*D_NET *40 0.000524545
*CONN
*I *133:A I *D sky130_fd_sc_hd__xor2_1
*I *152:X O *D sky130_fd_sc_hd__dlygate4sd3_1
*CAP
1 *133:A 0.000235541
2 *152:X 0.000235541
3 *133:A *169:A 4.99619e-05
4 *132:A *133:A 3.50152e-06
*RES
1 *152:X *133:A 6.425 
*END

*D_NET *41 0.00186908
*CONN
*I *120:A I *D sky130_fd_sc_hd__xor2_1
*I *118:A I *D sky130_fd_sc_hd__inv_2
*I *153:X O *D sky130_fd_sc_hd__dlygate4sd3_1
*CAP
1 *120:A 2.15064e-05
2 *118:A 0.000223595
3 *153:X 0.000238422
4 *41:10 0.000483523
5 *120:A *163:A 4.77757e-05
6 *41:10 *128:C 4.9968e-05
7 *41:10 *131:B1 0.000122801
8 q[0] *118:A 2.75229e-05
9 *123:A *118:A 3.95724e-05
10 *143:CLK *118:A 0
11 *143:D *118:A 0.000111901
12 *150:A *118:A 9.14801e-05
13 *150:A *41:10 0.000162524
14 *33:18 *41:10 8.52883e-05
15 *37:25 *118:A 0
16 *37:42 *41:10 0
17 *39:40 *118:A 0.000163199
*RES
1 *153:X *41:10 8.925 
2 *41:10 *118:A 8.625 
3 *41:10 *120:A 4.05 
*END

*D_NET *42 0.00122238
*CONN
*I *120:B I *D sky130_fd_sc_hd__xor2_1
*I *154:X O *D sky130_fd_sc_hd__dlygate4sd3_1
*CAP
1 *120:B 0.00041555
2 *154:X 0.00041555
3 *120:B *163:A 0.00015486
4 *120:B *50:38 7.23602e-05
5 *120:B *51:10 7.01359e-05
6 *142:D *120:B 9.39263e-05
*RES
1 *154:X *120:B 13.275 
*END

*D_NET *43 0.000581304
*CONN
*I *127:A I *D sky130_fd_sc_hd__xnor2_1
*I *155:X O *D sky130_fd_sc_hd__dlygate4sd3_1
*CAP
1 *127:A 0.000247357
2 *155:X 0.000247357
3 *127:B *127:A 8.65905e-05
*RES
1 *155:X *127:A 7.1 
*END

*D_NET *44 0.00163717
*CONN
*I *131:B1 I *D sky130_fd_sc_hd__a21oi_1
*I *156:X O *D sky130_fd_sc_hd__dlygate4sd3_1
*CAP
1 *131:B1 0.000423553
2 *156:X 0.000423553
3 *131:B1 *121:B 0.00010124
4 *131:B1 *153:A 8.70195e-05
5 *131:B1 *157:A 0.000122337
6 *132:B *131:B1 0.00019496
7 *148:RESET_B *131:B1 0
8 *161:A *131:B1 3.08148e-05
9 *33:18 *131:B1 0.000130897
10 *41:10 *131:B1 0.000122801
*RES
1 *156:X *131:B1 16.29 
*END

*D_NET *45 0.00159982
*CONN
*I *122:B1 I *D sky130_fd_sc_hd__a21oi_1
*I *157:X O *D sky130_fd_sc_hd__dlygate4sd3_1
*CAP
1 *122:B1 0.000387612
2 *157:X 0.000387612
3 *122:B1 *122:A1 2.60908e-05
4 *122:B1 *49:10 9.46062e-05
5 *122:B1 *49:38 8.53244e-05
6 *142:RESET_B *122:B1 0.000292368
7 *148:RESET_B *122:B1 0.000326212
*RES
1 *157:X *122:B1 16.44 
*END

*D_NET *46 0.00139013
*CONN
*I *123:B I *D sky130_fd_sc_hd__nor2_1
*I *158:X O *D sky130_fd_sc_hd__dlygate4sd3_1
*CAP
1 *123:B 0.000319213
2 *158:X 0.000319213
3 *123:B *164:A 0.000161969
4 *123:B *49:8 4.94474e-05
5 *123:B *52:8 0
6 *141:D *123:B 0
7 *37:42 *123:B 0.000208462
8 *39:10 *123:B 0.000322317
9 *39:12 *123:B 9.50342e-06
*RES
1 *158:X *123:B 15.03 
*END

*D_NET *47 0.00152239
*CONN
*I *129:B2 I *D sky130_fd_sc_hd__o2bb2a_1
*I *159:X O *D sky130_fd_sc_hd__dlygate4sd3_1
*CAP
1 *129:B2 0.000187149
2 *159:X 0.000187149
3 *129:B2 *155:A 8.53113e-06
4 *129:B2 *53:19 0.000331135
5 *138:A *129:B2 0.000281167
6 *147:RESET_B *129:B2 0.00030358
7 *29:14 *129:B2 8.23457e-05
8 *29:33 *129:B2 8.38635e-05
9 *29:35 *129:B2 5.83121e-06
10 *39:10 *129:B2 5.16418e-05
*RES
1 *159:X *129:B2 13.995 
*END

*D_NET *48 0.000690948
*CONN
*I *125:A I *D sky130_fd_sc_hd__xor2_1
*I *160:X O *D sky130_fd_sc_hd__dlygate4sd3_1
*CAP
1 *125:A 0.000230338
2 *160:X 0.000230338
3 *125:B *125:A 0.000129618
4 *145:RESET_B *125:A 0.000100654
*RES
1 *160:X *125:A 11.55 
*END

*D_NET *49 0.00399258
*CONN
*I *121:A I *D sky130_fd_sc_hd__and3_2
*I *153:A I *D sky130_fd_sc_hd__dlygate4sd3_1
*I *162:A I *D sky130_fd_sc_hd__buf_2
*I *122:A1 I *D sky130_fd_sc_hd__a21oi_1
*I *141:Q O *D sky130_fd_sc_hd__dfrtp_1
*CAP
1 *121:A 0
2 *153:A 0.0001436
3 *162:A 0.000353336
4 *122:A1 5.94356e-05
5 *141:Q 0.000262793
6 *49:38 0.000283688
7 *49:10 0.000537205
8 *49:8 0.000527314
9 *122:A1 *122:A2 2.54779e-05
10 *153:A *157:A 8.49205e-05
11 *162:A *51:10 7.41204e-05
12 *49:8 *154:A 3.83194e-05
13 *49:8 *164:A 7.94339e-05
14 *49:38 *121:B 4.79313e-05
15 *49:38 *157:A 8.65961e-05
16 q[1] *49:10 0.000203002
17 q[1] *49:38 5.28227e-05
18 *122:B1 *122:A1 2.60908e-05
19 *122:B1 *49:10 9.46062e-05
20 *122:B1 *49:38 8.53244e-05
21 *123:B *49:8 4.94474e-05
22 *131:B1 *153:A 8.70195e-05
23 *142:RESET_B *122:A1 0.000116158
24 *142:RESET_B *49:10 0.000183359
25 *143:D *162:A 8.97099e-05
26 *143:RESET_B *162:A 0.000103282
27 *148:RESET_B *49:38 0
28 *158:A *122:A1 5.20968e-05
29 *158:A *49:8 0.000120655
30 *158:A *49:10 7.71211e-05
31 *37:42 *49:8 4.77153e-05
*RES
1 *141:Q *49:8 8.19 
2 *49:8 *49:10 4.185 
3 *49:10 *122:A1 5.49 
4 *49:10 *162:A 9.945 
5 *49:8 *49:38 5.285 
6 *49:38 *153:A 4.135 
7 *49:38 *121:A 1.6 
*END

*D_NET *50 0.00428808
*CONN
*I *121:B I *D sky130_fd_sc_hd__and3_2
*I *154:A I *D sky130_fd_sc_hd__dlygate4sd3_1
*I *122:A2 I *D sky130_fd_sc_hd__a21oi_1
*I *163:A I *D sky130_fd_sc_hd__buf_2
*I *142:Q O *D sky130_fd_sc_hd__dfrtp_1
*CAP
1 *121:B 0.000175718
2 *154:A 0.000119405
3 *122:A2 0.000202544
4 *163:A 0.000300628
5 *142:Q 0.000233937
6 *50:38 0.000355818
7 *50:25 0.000263239
8 *50:6 0.000534565
9 *121:B *157:A 2.61042e-05
10 *121:B *51:10 2.33933e-05
11 *121:B *51:25 3.6227e-05
12 *122:A2 *51:10 6.67858e-05
13 *163:A *51:10 0
14 *50:38 *51:10 5.12231e-05
15 q[1] *121:B 1.03833e-05
16 q[1] *163:A 0.000614747
17 q[1] *50:6 2.39856e-05
18 q[1] *50:38 1.07797e-05
19 *120:A *163:A 4.77757e-05
20 *120:B *163:A 0.00015486
21 *120:B *50:38 7.23602e-05
22 *122:A1 *122:A2 2.54779e-05
23 *131:B1 *121:B 0.00010124
24 *140:A *122:A2 8.8266e-05
25 *142:D *163:A 9.39263e-05
26 *142:RESET_B *122:A2 5.05521e-05
27 *158:A *122:A2 0.000310622
28 *158:A *154:A 4.66108e-05
29 *158:A *50:38 0.000160658
30 *37:12 *122:A2 0
31 *37:42 *163:A 0
32 *49:8 *154:A 3.83194e-05
33 *49:38 *121:B 4.79313e-05
*RES
1 *142:Q *50:6 4.81 
2 *50:6 *163:A 13.685 
3 *50:6 *50:25 2 
4 *50:25 *122:A2 8.835 
5 *50:25 *50:38 2.145 
6 *50:38 *154:A 5.43 
7 *50:38 *121:B 7.05 
*END

*D_NET *51 0.00404367
*CONN
*I *157:A I *D sky130_fd_sc_hd__dlygate4sd3_1
*I *121:C I *D sky130_fd_sc_hd__and3_2
*I *164:A I *D sky130_fd_sc_hd__buf_2
*I *143:Q O *D sky130_fd_sc_hd__dfrtp_1
*CAP
1 *157:A 7.30935e-05
2 *121:C 0
3 *164:A 0.000810591
4 *143:Q 0.000520616
5 *51:25 0.000122241
6 *51:10 0.00138035
7 *120:B *51:10 7.01359e-05
8 *121:B *157:A 2.61042e-05
9 *121:B *51:10 2.33933e-05
10 *121:B *51:25 3.6227e-05
11 *122:A2 *51:10 6.67858e-05
12 *123:B *164:A 0.000161969
13 *131:B1 *157:A 0.000122337
14 *141:RESET_B *164:A 0.00023142
15 *145:RESET_B *164:A 5.83121e-06
16 *153:A *157:A 8.49205e-05
17 *158:A *164:A 3.64998e-06
18 *162:A *51:10 7.41204e-05
19 *163:A *51:10 0
20 *37:25 *51:10 0
21 *37:42 *164:A 1.26306e-05
22 *37:42 *51:10 0
23 *49:8 *164:A 7.94339e-05
24 *49:38 *157:A 8.65961e-05
25 *50:38 *51:10 5.12231e-05
*RES
1 *143:Q *51:10 10.995 
2 *51:10 *164:A 14.085 
3 *51:10 *51:25 0.87 
4 *51:25 *121:C 3.6 
5 *51:25 *157:A 5.7 
*END

*D_NET *52 0.0025385
*CONN
*I *128:A I *D sky130_fd_sc_hd__and3_1
*I *160:A I *D sky130_fd_sc_hd__dlygate4sd3_1
*I *126:A I *D sky130_fd_sc_hd__and3_1
*I *124:A I *D sky130_fd_sc_hd__nand2_1
*I *165:A I *D sky130_fd_sc_hd__buf_2
*I *144:Q O *D sky130_fd_sc_hd__dfrtp_1
*CAP
1 *128:A 0.000220078
2 *160:A 0
3 *126:A 0
4 *124:A 0.000139438
5 *165:A 9.52672e-05
6 *144:Q 0.000151109
7 *52:18 0.000283662
8 *52:16 0.000222084
9 *52:12 0.000223365
10 *52:8 0.000421426
11 *52:16 *126:B 0.000213145
12 *123:A *52:8 0
13 *123:A *52:12 0
14 *123:B *52:8 0
15 *125:B *52:16 2.3311e-05
16 *139:A *124:A 9.50342e-06
17 *141:D *52:8 6.47516e-05
18 *141:RESET_B *52:8 1.82476e-05
19 *145:RESET_B *124:A 0
20 *147:RESET_B *124:A 7.00225e-05
21 *147:RESET_B *165:A 4.05674e-06
22 *147:RESET_B *52:18 1.4389e-05
23 *29:70 *52:16 0.000223138
24 *33:18 *128:A 0.000123149
25 *33:24 *52:12 8.53113e-06
26 *39:10 *128:A 9.82856e-06
27 *39:10 *52:8 0
28 *39:10 *52:12 0
*RES
1 *144:Q *52:8 6.3825 
2 *52:8 *52:12 2.7425 
3 *52:12 *52:16 4.605 
4 *52:16 *52:18 0.795 
5 *52:18 *165:A 3.1 
6 *52:18 *124:A 8.36 
7 *52:16 *126:A 1.6 
8 *52:12 *160:A 1.6 
9 *52:8 *128:A 6.4725 
*END

*D_NET *53 0.00446267
*CONN
*I *155:A I *D sky130_fd_sc_hd__dlygate4sd3_1
*I *128:B I *D sky130_fd_sc_hd__and3_1
*I *126:B I *D sky130_fd_sc_hd__and3_1
*I *166:A I *D sky130_fd_sc_hd__buf_2
*I *145:Q O *D sky130_fd_sc_hd__dfrtp_1
*CAP
1 *155:A 0.000120295
2 *128:B 0.000142657
3 *126:B 0.000282525
4 *166:A 0.000711464
5 *145:Q 0
6 *53:19 0.000569358
7 *53:15 0.000264471
8 *53:4 0.000711464
9 *129:B1 *126:B 0.000198046
10 *129:B2 *155:A 8.53113e-06